data/case_ACTIV_SG_2000.m
function mpc = case_ACTIV_SG_2000
%CASE_ACTIV_SG_2000  Synthetic 2000-bus power system model.
%
%   This is a synthetic power system model that does not represent the
%   actual grid. It was developed as part of the US ARPA-E Grid Data
%   research project and contains no CEII.
%
%   Reference:
%       A.B. Birchfield, T. Xu, K.M. Gegner, K.S. Shetye, and T.J. Overbye,
%       "Grid Structural Characteristics as Validation Criteria for Synthetic
%       Networks," to appear, IEEE Transactions on Power Systems, 2017.
%
%   April 28, 2017

%   MATPOWER
%   Copyright (c) 2017 by A.B. Birchfield, T. Xu, K.M. Gegner, K.S. Shetye,
%   and T.J. Overbye
%   Licensed under the Creative Commons Attribution 4.0 International license,
%   http://creativecommons.org/licenses/by/4.0/

% Case saved by PowerWorld Simulator, version 20 Beta, build date April 26, 2017
% Case Information Header = 2 lines
% This is a synthetic power system model that does not represent the actual grid. It was developed as part of the US ARPA-E Grid Data research project and contains no CEII.
% Reference: A.B. Birchfield, T. Xu, K.M. Gegner, K.S. Shetye, and T.J. Overbye, "Grid Structural Characteristics as Validation Criteria for Synthetic Networks," to appear, IEEE Transactions on Power Systems, 2017.


%% MATPOWER Case Format : Version 2
mpc.version = '2';

%%-----  Power Flow Data  -----%%
%% system MVA base
mpc.baseMVA = 100;

%% bus data
%	bus_i	type	Pd	Qd	Gs	Bs	area	Vm	Va	baseKV	zone	Vmax	Vmin	lam_P	lam_Q	mu_Vmax	mu_Vmin
mpc.bus = [
	1	1	20.78	5.89	0	0	2	0.9873563	-4.750629	115	1	1.1	0.9	19.0200	0.0000	0.0000	0.0000;
	2	1	15.41	4.37	0	0	2	1.0377117	-12.808007	115	1	1.1	0.9	19.0200	0.0000	0.0000	0.0000;
	3	1	0	0	0	0	2	0.99818	-30.536085	115	1	1.1	0.9	19.0200	0.0000	0.0000	0.0000;
	4	2	0	0	0	0	2	1.01	-34.24855	230	1	1.1	0.9	19.0200	0.0000	0.0000	0.0000;
	5	1	0	0	0	0	2	1.0024038	-15.137592	115	1	1.1	0.9	19.0200	0.0000	0.0000	0.0000;
	6	2	0	0	0	0	2	1	-12.966991	13.8	1	1.1	0.9	19.0200	0.0000	0.0000	0.0000;
	7	1	7.01	1.99	0	0	2	1.0385957	-12.213521	115	1	1.1	0.9	19.0200	0.0000	0.0000	0.0000;
	8	1	0	0	0	0	2	1.0340722	-7.367527	115	1	1.1	0.9	19.0200	0.0000	0.0000	0.0000;
	9	2	0	0	0	0	2	1.024222	-4.166405	13.8	1	1.1	0.9	19.0200	0.0000	0.0000	0.0000;
	10	1	0	0	0	0	2	1.0451056	-11.878217	115	1	1.1	0.9	19.0200	0.0000	0.0000	0.0000;
	11	2	0	0	0	0	2	1.0453633	-10.601364	22	1	1.1	0.9	19.0200	0.0000	0.0000	0.0000;
	12	1	2.99	0.85	0	9.5	2	1.0579381	-26.620897	115	1	1.1	0.9	19.0200	0.0000	0.0000	0.0000;
	13	1	29.23	8.28	0	0	2	1.0076665	-6.912252	115	1	1.1	0.9	19.0200	0.0000	0.0000	0.0000;
	14	1	2.22	0.63	0	0	2	1.0192705	-5.55192	115	1	1.1	0.9	19.0200	0.0000	0.0000	0.0000;
	15	1	7.51	2.13	0	0	2	1.044506	-12.696256	115	1	1.1	0.9	19.0200	0.0000	0.0000	0.0000;
	16	1	2.89	0.82	0	30	2	1.0176868	-13.474109	115	1	1.1	0.9	19.0200	0.0000	0.0000	0.0000;
	17	1	18.34	5.2	0	0	2	0.986861	-8.180627	115	1	1.1	0.9	19.0200	0.0000	0.0000	0.0000;
	18	1	0.07	0.02	0	0	2	0.9937205	-7.392231	115	1	1.1	0.9	19.0200	0.0000	0.0000	0.0000;
	19	1	61.78	17.5	0	142.98	2	1.0073921	-5.525198	115	1	1.1	0.9	19.0200	0.0000	0.0000	0.0000;
	20	1	0	0	0	76.73	2	1.0118408	-15.227462	115	1	1.1	0.9	19.0200	0.0000	0.0000	0.0000;
	21	2	0	0	0	0	2	1	-8.570237	13.8	1	1.1	0.9	19.0200	0.0000	0.0000	0.0000;
	22	1	0	0	0	0	2	1.0024659	-30.044283	115	1	1.1	0.9	19.0200	0.0000	0.0000	0.0000;
	23	2	0	0	0	0	2	1.01	-21.077215	13.8	1	1.1	0.9	19.0200	0.0000	0.0000	0.0000;
	24	1	63.04	17.86	0	0	2	0.9961299	-6.718962	115	1	1.1	0.9	19.0200	0.0000	0.0000	0.0000;
	25	1	0	0	0	0	2	1.0104688	-13.888763	115	1	1.1	0.9	19.0200	0.0000	0.0000	0.0000;
	26	2	0	0	0	0	2	1	-4.312291	13.8	1	1.1	0.9	19.0200	0.0000	0.0000	0.0000;
	27	1	101.21	28.68	0	75	2	1.0181071	-16.355342	115	1	1.1	0.9	19.0200	0.0000	0.0000	0.0000;
	28	1	10.01	2.84	0	0	2	1.0057363	-32.456354	115	1	1.1	0.9	19.0200	0.0000	0.0000	0.0000;
	29	1	83.18	23.57	0	40	2	1.0038452	-16.30604	115	1	1.1	0.9	19.0200	0.0000	0.0000	0.0000;
	30	1	24.63	6.98	0	0	2	1.0317784	-9.512678	115	1	1.1	0.9	19.0200	0.0000	0.0000	0.0000;
	31	1	9.25	2.62	0	0	2	1.0218733	-10.289914	115	1	1.1	0.9	19.0200	0.0000	0.0000	0.0000;
	32	1	0	0	0	0	2	1.0167742	-9.631481	115	1	1.1	0.9	19.0200	0.0000	0.0000	0.0000;
	33	2	0	0	0	100	2	1.0335304	-13.497784	230	1	1.1	0.9	19.0200	0.0000	0.0000	0.0000;
	34	1	0	0	0	0	2	1.0049251	-12.460295	115	1	1.1	0.9	19.0200	0.0000	0.0000	0.0000;
	35	2	0	0	0	0	2	1	-9.170488	13.8	1	1.1	0.9	19.0200	0.0000	0.0000	0.0000;
	36	1	13.6	3.85	0	0	2	1.0057531	-9.960314	115	1	1.1	0.9	19.0200	0.0000	0.0000	0.0000;
	37	1	102.24	28.97	0	0	2	0.9820091	-6.972549	115	1	1.1	0.9	19.0200	0.0000	0.0000	0.0000;
	38	1	0	0	0	0	2	1.0312343	-4.783977	115	1	1.1	0.9	19.0200	0.0000	0.0000	0.0000;
	39	2	0	0	0	0	2	1.011054	0.469456	22	1	1.1	0.9	19.0200	0.0000	0.0000	0.0000;
	40	1	44.36	12.57	0	0	2	0.9982011	-6.514174	115	1	1.1	0.9	19.0200	0.0000	0.0000	0.0000;
	41	1	0	0	0	0	2	1.0032022	-12.998204	115	1	1.1	0.9	19.0200	0.0000	0.0000	0.0000;
	42	2	0	0	0	0	2	1.0032022	-12.998204	13.8	1	1.1	0.9	19.0200	0.0000	0.0000	0.0000;
	43	2	0	0	0	0	2	1	-9.757589	13.8	1	1.1	0.9	19.0200	0.0000	0.0000	0.0000;
	44	1	14.68	4.16	0	0	2	1.0078641	-29.30086	115	1	1.1	0.9	19.0200	0.0000	0.0000	0.0000;
	45	1	98.56	27.93	0	0	2	0.9837103	-8.520112	115	1	1.1	0.9	19.0200	0.0000	0.0000	0.0000;
	46	1	11.08	3.14	0	12	2	1.0494515	-25.125231	115	1	1.1	0.9	19.0200	0.0000	0.0000	0.0000;
	47	1	0	0	0	0	2	1.0062351	-4.748191	115	1	1.1	0.9	19.0200	0.0000	0.0000	0.0000;
	48	2	0	0	0	0	2	1.0062351	-4.748191	18	1	1.1	0.9	19.0200	0.0000	0.0000	0.0000;
	49	2	0	0	0	0	2	1.0062351	-4.748191	18	1	1.1	0.9	19.0200	0.0000	0.0000	0.0000;
	50	2	0	0	0	0	2	1	0.328036	18	1	1.1	0.9	19.0200	0.0000	0.0000	0.0000;
	51	2	0	0	0	0	2	1	1.80882	18	1	1.1	0.9	19.0200	0.0000	0.0000	0.0000;
	52	2	0	0	0	0	2	1	-0.522389	18	1	1.1	0.9	19.0200	0.0000	0.0000	0.0000;
	53	2	0	0	0	0	2	1.0193557	-11.284422	230	1	1.1	0.9	19.0200	0.0000	0.0000	0.0000;
	54	1	14.99	4.25	0	0	2	1.0096099	-20.911209	115	1	1.1	0.9	19.0200	0.0000	0.0000	0.0000;
	55	1	3.98	1.13	0	0	2	0.9918958	-30.106882	115	1	1.1	0.9	19.0200	0.0000	0.0000	0.0000;
	56	1	0	0	0	80	2	1.0269105	-16.965381	115	1	1.1	0.9	19.0200	0.0000	0.0000	0.0000;
	57	2	0	0	0	0	2	1.0269105	-16.965381	18	1	1.1	0.9	19.0200	0.0000	0.0000	0.0000;
	58	1	13.46	3.81	0	0	2	1.0424786	-10.959197	115	1	1.1	0.9	19.0200	0.0000	0.0000	0.0000;
	59	2	0	0	0	0	2	1.0424786	-10.959197	22	1	1.1	0.9	19.0200	0.0000	0.0000	0.0000;
	60	2	0	0	0	0	2	1.0424786	-10.959197	22	1	1.1	0.9	19.0200	0.0000	0.0000	0.0000;
	61	1	0	0	0	0	2	1.0029666	-16.566852	115	1	1.1	0.9	19.0200	0.0000	0.0000	0.0000;
	62	2	0	0	0	0	2	1.0029666	-16.566852	13.8	1	1.1	0.9	19.0200	0.0000	0.0000	0.0000;
	63	2	0	0	0	0	2	1.0029666	-16.566852	13.8	1	1.1	0.9	19.0200	0.0000	0.0000	0.0000;
	64	1	123.76	35.07	0	0	2	0.979092	-6.813608	115	1	1.1	0.9	19.0200	0.0000	0.0000	0.0000;
	65	1	0	0	0	0	2	1.0066766	-12.424473	115	1	1.1	0.9	19.0200	0.0000	0.0000	0.0000;
	66	2	0	0	0	0	2	1	-4.903746	13.8	1	1.1	0.9	19.0200	0.0000	0.0000	0.0000;
	67	1	101.55	28.77	0	0	2	0.9992613	-13.889728	115	1	1.1	0.9	19.0200	0.0000	0.0000	0.0000;
	68	1	59.4	16.83	0	0	2	0.9868116	-14.203441	115	1	1.1	0.9	19.0200	0.0000	0.0000	0.0000;
	69	1	0	0	0	0	2	1.0377571	-7.890621	115	1	1.1	0.9	19.0200	0.0000	0.0000	0.0000;
	70	2	0	0	0	0	2	1.04	-3.417385	13.8	1	1.1	0.9	19.0200	0.0000	0.0000	0.0000;
	71	1	91.46	25.91	0	0	2	0.9961785	-2.997839	115	1	1.1	0.9	19.0200	0.0000	0.0000	0.0000;
	72	2	0	0	0	0	2	1.01	6.338796	18	1	1.1	0.9	19.0200	0.0000	0.0000	0.0000;
	73	2	0	0	0	0	2	1.01	12.709948	18	1	1.1	0.9	19.0200	0.0000	0.0000	0.0000;
	74	2	0	0	0	0	2	1.01	10.673814	18	1	1.1	0.9	19.0200	0.0000	0.0000	0.0000;
	75	2	0	0	0	0	2	1.01	7.919764	18	1	1.1	0.9	19.0200	0.0000	0.0000	0.0000;
	76	2	0	0	0	0	2	0.9961785	-2.997839	18	1	1.1	0.9	19.0200	0.0000	0.0000	0.0000;
	77	2	0	0	0	0	2	0.9961785	-2.997839	18	1	1.1	0.9	19.0200	0.0000	0.0000	0.0000;
	78	2	0	0	0	0	2	1.01	7.398936	18	1	1.1	0.9	19.0200	0.0000	0.0000	0.0000;
	79	2	0	0	0	0	2	1.01	1.64778	18	1	1.1	0.9	19.0200	0.0000	0.0000	0.0000;
	80	2	0	0	0	0	2	1.01	7.988216	18	1	1.1	0.9	19.0200	0.0000	0.0000	0.0000;
	81	2	0	0	0	100	2	1.0230297	-13.496682	230	1	1.1	0.9	19.0200	0.0000	0.0000	0.0000;
	82	2	0	0	0	0	2	1.0339779	-3.802784	115	1	1.1	0.9	19.0200	0.0000	0.0000	0.0000;
	83	1	39.95	11.32	0	26.15	2	1.0329804	-6.234968	115	1	1.1	0.9	19.0200	0.0000	0.0000	0.0000;
	84	2	0	0	0	0	2	1.0146078	-13.078018	115	1	1.1	0.9	19.0200	0.0000	0.0000	0.0000;
	85	1	21.3	6.03	0	0	2	1.0103507	-5.757978	115	1	1.1	0.9	19.0200	0.0000	0.0000	0.0000;
	86	1	39.67	11.24	0	30	2	1.0178152	-8.436918	115	1	1.1	0.9	19.0200	0.0000	0.0000	0.0000;
	87	1	0.91	0.26	0	50	2	1.0630053	-16.956704	115	1	1.1	0.9	19.0200	0.0000	0.0000	0.0000;
	88	2	0	0	0	0	2	1	-9.403051	115	1	1.1	0.9	19.0200	0.0000	0.0000	0.0000;
	89	1	40.6	11.5	0	0	2	0.9741866	-28.416624	115	1	1.1	0.9	19.0200	0.0000	0.0000	0.0000;
	90	2	0	0	0	0	2	1.02	-3.985126	115	1	1.1	0.9	19.0200	0.0000	0.0000	0.0000;
	91	1	11.62	3.29	0	0	2	1.0207403	-48.981034	161	1	1.1	0.9	19.0200	0.0000	0.0000	0.0000;
	92	1	48.36	13.7	0	0	2	1.0038365	-83.416223	161	1	1.1	0.9	19.0200	0.0000	0.0000	0.0000;
	93	1	0	0	0	0	2	1.0132563	-84.91594	500	1	1.1	0.9	19.0200	0.0000	0.0000	0.0000;
	94	1	0	0	0	0	2	1.0139439	-87.160454	161	1	1.1	0.9	19.0200	0.0000	0.0000	0.0000;
	95	2	0	0	0	0	2	1.0132563	-84.91594	13.8	1	1.1	0.9	19.0200	0.0000	0.0000	0.0000;
	96	2	0	0	0	0	2	1.0132563	-84.91594	13.8	1	1.1	0.9	19.0200	0.0000	0.0000	0.0000;
	97	2	0	0	0	0	2	1.0132563	-84.91594	13.8	1	1.1	0.9	19.0200	0.0000	0.0000	0.0000;
	98	1	9.54	2.7	0	0	2	1.0049675	-83.185963	161	1	1.1	0.9	19.0200	0.0000	0.0000	0.0000;
	99	1	8.06	2.28	0	0	2	1.0143612	-51.651026	161	1	1.1	0.9	19.0200	0.0000	0.0000	0.0000;
	100	1	39.14	11.09	0	187	2	1.040721	-64.803735	161	1	1.1	0.9	19.0200	0.0000	0.0000	0.0000;
	101	1	56.81	16.09	0	20	2	1.0155694	-54.578849	161	1	1.1	0.9	19.0200	0.0000	0.0000	0.0000;
	102	1	0	0	0	0	2	1.0386952	-51.423744	500	1	1.1	0.9	19.0200	0.0000	0.0000	0.0000;
	103	1	0	0	0	0	2	1.0264555	-49.091758	161	1	1.1	0.9	19.0200	0.0000	0.0000	0.0000;
	104	2	0	0	0	0	2	1.0303343	-49.083228	18	1	1.1	0.9	19.0200	0.0000	0.0000	0.0000;
	105	1	25.43	7.2	0	0	2	1.0118953	-51.989077	161	1	1.1	0.9	19.0200	0.0000	0.0000	0.0000;
	106	1	4.69	1.33	0	0	2	0.9966506	-85.278198	161	1	1.1	0.9	19.0200	0.0000	0.0000	0.0000;
	107	1	69.27	19.63	0	0	2	1.0279395	-93.324662	161	1	1.1	0.9	19.0200	0.0000	0.0000	0.0000;
	108	1	0	0	0	-200	2	1.0278129	-51.309597	500	1	1.1	0.9	19.0200	0.0000	0.0000	0.0000;
	109	1	0	0	0	0	2	1.0260555	-50.573228	161	1	1.1	0.9	19.0200	0.0000	0.0000	0.0000;
	110	2	0	0	0	0	2	1.0278129	-51.309597	20	1	1.1	0.9	19.0200	0.0000	0.0000	0.0000;
	111	1	47.97	13.59	0	0	2	0.9963862	-64.306373	161	1	1.1	0.9	19.0200	0.0000	0.0000	0.0000;
	112	1	0	0	0	0	2	1.0155783	-80.163964	500	1	1.1	0.9	19.0200	0.0000	0.0000	0.0000;
	113	1	11.56	3.28	0	0	2	1.0119754	-82.080243	161	1	1.1	0.9	19.0200	0.0000	0.0000	0.0000;
	114	2	0	0	0	0	2	1.02	-78.597621	13.8	1	1.1	0.9	19.0200	0.0000	0.0000	0.0000;
	115	2	0	0	0	0	2	1.02	-77.931388	13.8	1	1.1	0.9	19.0200	0.0000	0.0000	0.0000;
	116	1	39.62	11.23	0	0	2	0.9943708	-63.444187	161	1	1.1	0.9	19.0200	0.0000	0.0000	0.0000;
	117	1	18.57	5.26	0	0	2	1.0260402	-50.382512	161	1	1.1	0.9	19.0200	0.0000	0.0000	0.0000;
	118	1	3.55	1.01	0	0	2	1.0043869	-83.841694	161	1	1.1	0.9	19.0200	0.0000	0.0000	0.0000;
	119	1	14.24	4.03	0	0	2	0.9984508	-66.941819	161	1	1.1	0.9	19.0200	0.0000	0.0000	0.0000;
	120	1	3.2	0.91	0	0	2	1.0168798	-51.166618	161	1	1.1	0.9	19.0200	0.0000	0.0000	0.0000;
	121	1	47.15	13.36	0	0	2	0.9918446	-87.408597	161	1	1.1	0.9	19.0200	0.0000	0.0000	0.0000;
	122	1	5.77	1.63	0	0	2	1.0131343	-46.870877	161	1	1.1	0.9	19.0200	0.0000	0.0000	0.0000;
	123	1	3.35	0.95	0	0	2	1.0068735	-82.588954	161	1	1.1	0.9	19.0200	0.0000	0.0000	0.0000;
	124	1	13.57	3.85	0	0	2	0.994477	-88.875139	161	1	1.1	0.9	19.0200	0.0000	0.0000	0.0000;
	125	1	5.34	1.51	0	0	2	1.0212425	-92.61949	161	1	1.1	0.9	19.0200	0.0000	0.0000	0.0000;
	126	1	4.68	1.33	0	0	2	1.0071299	-47.693798	161	1	1.1	0.9	19.0200	0.0000	0.0000	0.0000;
	127	1	41.59	11.78	0	0	2	1.0029246	-63.872538	161	1	1.1	0.9	19.0200	0.0000	0.0000	0.0000;
	128	1	3.5	0.99	0	0	2	1.0058112	-85.677063	161	1	1.1	0.9	19.0200	0.0000	0.0000	0.0000;
	129	1	2.6	0.74	0	0	2	1.0108024	-87.627597	161	1	1.1	0.9	19.0200	0.0000	0.0000	0.0000;
	130	1	5.56	1.58	0	0	2	0.9856555	-82.460263	161	1	1.1	0.9	19.0200	0.0000	0.0000	0.0000;
	131	1	15.9	4.51	0	0	2	1.0095337	-82.749252	161	1	1.1	0.9	19.0200	0.0000	0.0000	0.0000;
	132	1	0	0	0	0	2	1.0274017	-46.916335	161	1	1.1	0.9	19.0200	0.0000	0.0000	0.0000;
	133	2	0	0	0	0	2	1.0188017	-44.337931	18	1	1.1	0.9	19.0200	0.0000	0.0000	0.0000;
	134	1	4.24	1.2	0	0	2	1.0238805	-92.940557	161	1	1.1	0.9	19.0200	0.0000	0.0000	0.0000;
	135	1	27.4	7.76	0	0	2	1.0002396	-88.031968	161	1	1.1	0.9	19.0200	0.0000	0.0000	0.0000;
	136	1	22.61	6.4	0	0	2	0.9961651	-64.901543	161	1	1.1	0.9	19.0200	0.0000	0.0000	0.0000;
	137	1	22.13	6.27	0	0	2	1.0188105	-92.217817	161	1	1.1	0.9	19.0200	0.0000	0.0000	0.0000;
	138	1	14.96	4.24	0	0	2	1.0137835	-88.059983	161	1	1.1	0.9	19.0200	0.0000	0.0000	0.0000;
	139	1	6.42	1.82	0	0	2	1.0180143	-49.433994	161	1	1.1	0.9	19.0200	0.0000	0.0000	0.0000;
	140	1	11.57	3.28	0	0	2	1.0275456	-60.171589	161	1	1.1	0.9	19.0200	0.0000	0.0000	0.0000;
	141	1	3.66	1.04	0	0	2	0.9970185	-86.619661	161	1	1.1	0.9	19.0200	0.0000	0.0000	0.0000;
	142	1	17.85	5.06	0	0	2	0.9875767	-74.7845	161	1	1.1	0.9	19.0200	0.0000	0.0000	0.0000;
	143	1	24.84	7.04	0	0	2	1.0162995	-50.978487	161	1	1.1	0.9	19.0200	0.0000	0.0000	0.0000;
	144	1	29.13	8.25	0	0	2	0.9877864	-81.457339	161	1	1.1	0.9	19.0200	0.0000	0.0000	0.0000;
	145	1	0	0	0	0	2	0.9966053	-62.448024	500	1	1.1	0.9	19.0200	0.0000	0.0000	0.0000;
	146	1	49.62	14.06	0	0	2	0.9978446	-63.306448	161	1	1.1	0.9	19.0200	0.0000	0.0000	0.0000;
	147	2	0	0	0	0	2	0.9966053	-62.448024	18	1	1.1	0.9	19.0200	0.0000	0.0000	0.0000;
	148	2	0	0	0	0	2	0.99	-58.460718	18	1	1.1	0.9	19.0200	0.0000	0.0000	0.0000;
	149	1	0	0	0	0	2	1.0277582	-46.499166	161	1	1.1	0.9	19.0200	0.0000	0.0000	0.0000;
	150	2	0	0	0	0	2	1.0177522	-43.148881	13.8	1	1.1	0.9	19.0200	0.0000	0.0000	0.0000;
	151	1	3.8	1.08	0	0	2	1.000055	-85.348242	161	1	1.1	0.9	19.0200	0.0000	0.0000	0.0000;
	152	1	0	0	0	0	2	1.0235754	-56.324663	161	1	1.1	0.9	19.0200	0.0000	0.0000	0.0000;
	153	2	0	0	0	0	2	1.02	-54.027993	18	1	1.1	0.9	19.0200	0.0000	0.0000	0.0000;
	154	1	65.62	18.59	0	40	2	1.0178572	-91.57562	161	1	1.1	0.9	19.0200	0.0000	0.0000	0.0000;
	155	1	10.05	2.85	0	0	2	1.0054065	-83.699101	161	1	1.1	0.9	19.0200	0.0000	0.0000	0.0000;
	156	1	78.36	22.2	0	0	2	0.9968019	-87.82137	161	1	1.1	0.9	19.0200	0.0000	0.0000	0.0000;
	157	1	7.11	2.02	0	0	2	1.0060316	-44.336852	161	1	1.1	0.9	19.0200	0.0000	0.0000	0.0000;
	158	1	53.97	15.29	0	0	2	0.992355	-63.332608	161	1	1.1	0.9	19.0200	0.0000	0.0000	0.0000;
	159	1	5.76	1.63	0	0	2	0.9977237	-61.156593	161	1	1.1	0.9	19.0200	0.0000	0.0000	0.0000;
	160	1	21.92	6.21	0	179.77	2	1.0459905	-92.570834	161	1	1.1	0.9	19.0200	0.0000	0.0000	0.0000;
	161	1	0	0	0	0	2	0.9992188	-60.683369	161	1	1.1	0.9	19.0200	0.0000	0.0000	0.0000;
	162	2	0	0	0	0	2	1	-57.000514	18	1	1.1	0.9	19.0200	0.0000	0.0000	0.0000;
	163	1	9.71	2.75	0	0	2	1.0312457	-90.639928	161	1	1.1	0.9	19.0200	0.0000	0.0000	0.0000;
	164	1	0	0	0	0	2	1.0074669	-41.48599	161	1	1.1	0.9	19.0200	0.0000	0.0000	0.0000;
	165	1	0	0	0	0	2	0.9996455	-39.432562	115	1	1.1	0.9	19.0200	0.0000	0.0000	0.0000;
	166	1	0	0	0	0	2	0.9996455	-39.432562	115	1	1.1	0.9	19.0200	0.0000	0.0000	0.0000;
	167	2	0	0	0	0	2	1.0127697	-40.564826	24	1	1.1	0.9	19.0200	0.0000	0.0000	0.0000;
	168	1	0	0	0	0	2	1.0156776	-83.092404	161	1	1.1	0.9	19.0200	0.0000	0.0000	0.0000;
	169	2	0	0	0	0	2	1.02	-79.766128	13.8	1	1.1	0.9	19.0200	0.0000	0.0000	0.0000;
	170	1	4.48	1.27	0	0	2	1.017168	-52.617322	161	1	1.1	0.9	19.0200	0.0000	0.0000	0.0000;
	171	1	16.93	4.8	0	0	2	0.9912027	-78.693371	161	1	1.1	0.9	19.0200	0.0000	0.0000	0.0000;
	172	1	4.46	1.26	0	0	2	1.0051572	-88.424393	161	1	1.1	0.9	19.0200	0.0000	0.0000	0.0000;
	173	1	59.03	16.73	0	0	2	1.0106432	-64.261394	161	1	1.1	0.9	19.0200	0.0000	0.0000	0.0000;
	174	2	0	0	0	0	2	1.02	-62.684811	20	1	1.1	0.9	19.0200	0.0000	0.0000	0.0000;
	175	2	0	0	0	0	2	1.0106432	-64.261394	20	1	1.1	0.9	19.0200	0.0000	0.0000	0.0000;
	176	2	0	0	0	0	2	1.0106432	-64.261394	20	1	1.1	0.9	19.0200	0.0000	0.0000	0.0000;
	177	1	2.19	0.62	0	0	2	0.9875409	-81.031131	161	1	1.1	0.9	19.0200	0.0000	0.0000	0.0000;
	178	1	7.9	2.24	0	0	2	1.0093552	-44.261135	161	1	1.1	0.9	19.0200	0.0000	0.0000	0.0000;
	179	1	0	0	0	0	2	0.9986416	-60.83677	161	1	1.1	0.9	19.0200	0.0000	0.0000	0.0000;
	180	2	0	0	0	0	2	1	-57.230424	24	1	1.1	0.9	19.0200	0.0000	0.0000	0.0000;
	181	1	2.42	0.69	0	0	2	1.0048952	-84.452432	161	1	1.1	0.9	19.0200	0.0000	0.0000	0.0000;
	182	1	17.05	4.83	0	0	2	1.00972	-51.641126	161	1	1.1	0.9	19.0200	0.0000	0.0000	0.0000;
	183	1	24.11	6.83	0	0	2	1.014148	-89.895018	161	1	1.1	0.9	19.0200	0.0000	0.0000	0.0000;
	184	1	0	0	0	0	2	1.0267383	-49.794218	161	1	1.1	0.9	19.0200	0.0000	0.0000	0.0000;
	185	2	0	0	0	0	2	1.0267383	-49.794218	13.8	1	1.1	0.9	19.0200	0.0000	0.0000	0.0000;
	186	2	0	0	0	0	2	1.0267383	-49.794218	13.8	1	1.1	0.9	19.0200	0.0000	0.0000	0.0000;
	187	1	0	0	0	-100	2	1.0195662	-46.008125	500	1	1.1	0.9	19.0200	0.0000	0.0000	0.0000;
	188	1	0	0	0	0	2	1.0171548	-45.23068	230	1	1.1	0.9	19.0200	0.0000	0.0000	0.0000;
	189	1	0	0	0	0	2	1.0218675	-48.389614	161	1	1.1	0.9	19.0200	0.0000	0.0000	0.0000;
	190	2	0	0	0	0	2	1.02	-45.864671	18	1	1.1	0.9	19.0200	0.0000	0.0000	0.0000;
	191	2	0	0	0	0	2	1.02	-43.382675	18	1	1.1	0.9	19.0200	0.0000	0.0000	0.0000;
	192	1	0	0	0	0	2	1.0123705	-85.987288	500	1	1.1	0.9	19.0200	0.0000	0.0000	0.0000;
	193	1	0	0	0	0	2	1.0126277	-87.372273	161	1	1.1	0.9	19.0200	0.0000	0.0000	0.0000;
	194	2	0	0	0	0	2	1.0123705	-85.987288	20	1	1.1	0.9	19.0200	0.0000	0.0000	0.0000;
	195	2	0	0	0	0	2	1.0123705	-85.987288	20	1	1.1	0.9	19.0200	0.0000	0.0000	0.0000;
	196	2	0	0	0	0	2	1.0123705	-85.987288	20	1	1.1	0.9	19.0200	0.0000	0.0000	0.0000;
	197	1	14.4	4.08	0	0	2	0.9933327	-89.518249	161	1	1.1	0.9	19.0200	0.0000	0.0000	0.0000;
	198	1	74.15	21.01	0	0	2	1.0069815	-88.222756	161	1	1.1	0.9	19.0200	0.0000	0.0000	0.0000;
	199	1	2.14	0.61	0	0	2	0.9846122	-62.978095	161	1	1.1	0.9	19.0200	0.0000	0.0000	0.0000;
	200	1	33.81	9.58	0	0	2	1.0205148	-65.968238	161	1	1.1	0.9	19.0200	0.0000	0.0000	0.0000;
...
];

%% generator data
%	bus	Pg	Qg	Qmax	Qmin	Vg	mBase	status	Pmax	Pmin	Pc1	Pc2	Qc1min	Qc1max	Qc2min	Qc2max	ramp_agc	ramp_10	ramp_30	ramp_q	apf	mu_Pmax	mu_Pmin	mu_Qmax	mu_Qmin
mpc.gen = [
	4	158.25	-2.94	44.94	-30.38	1.01	253.2	1	158.25	158.25	0	0	0	0	0	0	0	0	0	0	211	0.0000	0.0000	0.0000	0.0000;
	6	25.73	-2.2	7.31	-4.94	1	41.16	1	25.73	25.73	0	0	0	0	0	0	0	0	0	0	34.3	0.0000	0.0000	0.0000	0.0000;
	9	61.87	-11.88	17.57	-11.88	1	99	1	61.87	61.87	0	0	0	0	0	0	0	0	0	0	82.5	0.0000	0.0000	0.0000	0.0000;
	11	7.5	0	0	0	1	12	1	7.5	7.5	0	0	0	0	0	0	0	0	0	0	10	0.0000	0.0000	0.0000	0.0000;
	21	149.63	-12.69	42.49	-28.73	1	239.4	1	149.63	149.63	0	0	0	0	0	0	0	0	0	0	199.5	0.0000	0.0000	0.0000	0.0000;
	23	135	10.88	38.34	-25.92	1.01	216	1	135	135	0	0	0	0	0	0	0	0	0	0	180	0.0000	0.0000	0.0000	0.0000;
	26	93.15	-0.17	26.45	-17.88	1	149.04	1	93.15	93.15	0	0	0	0	0	0	0	0	0	0	124.2	0.0000	0.0000	0.0000	0.0000;
	33	208.5	-40.03	59.21	-40.03	1	333.6	1	208.5	208.5	0	0	0	0	0	0	0	0	0	0	278	0.0000	0.0000	0.0000	0.0000;
	35	67.5	-7.33	19.17	-12.96	1	108	1	67.5	67.5	0	0	0	0	0	0	0	0	0	0	90	0.0000	0.0000	0.0000	0.0000;
	39	110.63	-21.24	31.42	-21.24	1	177	1	110.63	110.63	0	0	0	0	0	0	0	0	0	0	147.5	0.0000	0.0000	0.0000	0.0000;
	42	0	0	25.96	-17.55	1	146.28	0	0	0	0	0	0	0	0	0	0	0	0	0	121.9	0.0000	0.0000	0.0000	0.0000;
	43	44.1	-2.27	12.52	-8.47	1	70.56	1	44.1	44.1	0	0	0	0	0	0	0	0	0	0	58.8	0.0000	0.0000	0.0000	0.0000;
	48	0	0	165.53	-36.1	1	390.24	0	325.2	97.56	0	0	0	0	0	0	0	0	0	0	325.2	0.0000	0.0000	0.0000	0.0000;
	49	0	0	165.53	-36.1	1	390.24	0	325.2	97.56	0	0	0	0	0	0	0	0	0	0	325.2	0.0000	0.0000	0.0000	0.0000;
	50	89.4	-5.12	45.5	-9.92	1	107.28	1	89.4	26.82	0	0	0	0	0	0	0	0	0	0	89.4	0.0000	0.0000	0.0000	0.0000;
	51	89.4	-3.63	45.5	-9.92	1	107.28	1	89.4	26.82	0	0	0	0	0	0	0	0	0	0	89.4	0.0000	0.0000	0.0000	0.0000;
	52	89.4	-8.22	45.5	-9.92	1	107.28	1	89.4	26.82	0	0	0	0	0	0	0	0	0	0	89.4	0.0000	0.0000	0.0000	0.0000;
	53	0	0	91.01	-19.85	1	214.56	0	178.8	53.64	0	0	0	0	0	0	0	0	0	0	178.8	0.0000	0.0000	0.0000	0.0000;
	57	0	0	25.56	-17.28	1	144	0	0	0	0	0	0	0	0	0	0	0	0	0	120	0.0000	0.0000	0.0000	0.0000;
	59	0	0	2.85	-0.62	1.04	6.72	0	5.6	1.68	0	0	0	0	0	0	0	0	0	0	5.6	0.0000	0.0000	0.0000	0.0000;
	60	0	0	1.02	-0.22	1.04	2.4	0	2	0.6	0	0	0	0	0	0	0	0	0	0	2	0.0000	0.0000	0.0000	0.0000;
	62	0	0	0	0	1.01	1.8	0	0	0	0	0	0	0	0	0	0	0	0	0	1.5	0.0000	0.0000	0.0000	0.0000;
	63	0	0	0	0	1.01	276	0	0	0	0	0	0	0	0	0	0	0	0	0	230	0.0000	0.0000	0.0000	0.0000;
	66	106.88	-2.8	30.35	-20.52	1	171	1	106.88	106.88	0	0	0	0	0	0	0	0	0	0	142.5	0.0000	0.0000	0.0000	0.0000;
	70	120.38	2.92	34.19	-23.11	1.04	192.6	1	120.38	120.38	0	0	0	0	0	0	0	0	0	0	160.5	0.0000	0.0000	0.0000	0.0000;
	72	192.13	20.03	97.8	-21.33	1.01	230.56	1	192.13	57.64	0	0	0	0	0	0	0	0	0	0	192.13	0.0000	0.0000	0.0000	0.0000;
	73	192.13	29.43	97.8	-21.33	1.01	230.56	1	192.13	57.64	0	0	0	0	0	0	0	0	0	0	192.13	0.0000	0.0000	0.0000	0.0000;
	74	192.13	25.23	97.8	-21.33	1.01	230.56	1	192.13	57.64	0	0	0	0	0	0	0	0	0	0	192.13	0.0000	0.0000	0.0000	0.0000;
	75	192.13	25.08	97.8	-21.33	1.01	230.56	1	192.13	57.64	0	0	0	0	0	0	0	0	0	0	192.13	0.0000	0.0000	0.0000	0.0000;
	76	0	0	97.8	-21.33	1.01	230.56	0	192.13	57.64	0	0	0	0	0	0	0	0	0	0	192.13	0.0000	0.0000	0.0000	0.0000;
	77	0	0	97.8	-21.33	1.01	230.56	0	192.13	57.64	0	0	0	0	0	0	0	0	0	0	192.13	0.0000	0.0000	0.0000	0.0000;
	78	95.5	13.3	48.61	-10.6	1.01	114.6	1	95.5	28.65	0	0	0	0	0	0	0	0	0	0	95.5	0.0000	0.0000	0.0000	0.0000;
	79	95.5	15.49	48.61	-10.6	1.01	114.6	1	95.5	28.65	0	0	0	0	0	0	0	0	0	0	95.5	0.0000	0.0000	0.0000	0.0000;
	80	95.5	10.33	48.61	-10.6	1.01	114.6	1	95.5	28.65	0	0	0	0	0	0	0	0	0	0	95.5	0.0000	0.0000	0.0000	0.0000;
	81	0	0	145.83	-31.8	1.01	343.8	0	286.5	85.95	0	0	0	0	0	0	0	0	0	0	286.5	0.0000	0.0000	0.0000	0.0000;
	82	112.5	-21.6	31.95	-21.6	1	180	1	112.5	112.5	0	0	0	0	0	0	0	0	0	0	150	0.0000	0.0000	0.0000	0.0000;
	84	86.62	24.6	24.6	-16.63	1.04	138.6	1	86.62	86.62	0	0	0	0	0	0	0	0	0	0	115.5	0.0000	0.0000	0.0000	0.0000;
	88	56.25	-7	15.97	-10.8	1	90	1	56.25	56.25	0	0	0	0	0	0	0	0	0	0	75	0.0000	0.0000	0.0000	0.0000;
	90	114.37	25.13	32.48	-21.96	1.02	183	1	114.37	114.37	0	0	0	0	0	0	0	0	0	0	152.5	0.0000	0.0000	0.0000	0.0000;
	90	27	7.67	7.67	-5.18	1.02	43.2	1	27	27	0	0	0	0	0	0	0	0	0	0	36	0.0000	0.0000	0.0000	0.0000;
	95	0	0	199.43	-43.49	1.02	470.16	0	391.8	117.54	0	0	0	0	0	0	0	0	0	0	391.8	0.0000	0.0000	0.0000	0.0000;
	96	0	0	199.43	-43.49	1.02	470.16	0	391.8	117.54	0	0	0	0	0	0	0	0	0	0	391.8	0.0000	0.0000	0.0000	0.0000;
	97	0	0	199.43	-43.49	1.02	470.16	0	391.8	117.54	0	0	0	0	0	0	0	0	0	0	391.8	0.0000	0.0000	0.0000	0.0000;
	104	150.45	-28.89	42.73	-28.89	1	240.72	1	150.45	150.45	0	0	0	0	0	0	0	0	0	0	200.6	0.0000	0.0000	0.0000	0.0000;
	110	0	0	46.43	-31.39	1.04	261.6	0	0	0	0	0	0	0	0	0	0	0	0	0	218	0.0000	0.0000	0.0000	0.0000;
	114	83.33	13.06	42.42	-9.25	1.02	100	1	83.33	25	0	0	0	0	0	0	0	0	0	0	83.33	0.0000	0.0000	0.0000	0.0000;
	115	166.67	19.35	84.83	-18.5	1.02	200	1	166.67	50	0	0	0	0	0	0	0	0	0	0	166.67	0.0000	0.0000	0.0000	0.0000;
	133	59.7	-11.46	16.95	-11.46	1.01	95.52	1	59.7	59.7	0	0	0	0	0	0	0	0	0	0	79.6	0.0000	0.0000	0.0000	0.0000;
	147	0	0	2.8	-0.73	0.99	7.2	0	6	1.8	0	0	0	0	0	0	0	0	0	0	6	0.0000	0.0000	0.0000	0.0000;
	148	518.4	-41.22	335.52	-87.84	0.99	864	1	720	216	0	0	0	0	0	0	0	0	0	0	720	0.0000	0.0000	0.0000	0.0000;
	150	60	-11.52	17.04	-11.52	1	96	1	60	60	0	0	0	0	0	0	0	0	0	0	80	0.0000	0.0000	0.0000	0.0000;
	153	101.55	-10.8	28.84	-19.5	1.02	162.48	1	101.55	101.55	0	0	0	0	0	0	0	0	0	0	135.4	0.0000	0.0000	0.0000	0.0000;
	162	112.5	2.44	31.95	-21.6	1	180	1	112.5	112.5	0	0	0	0	0	0	0	0	0	0	150	0.0000	0.0000	0.0000	0.0000;
	167	22.5	6.39	6.39	-4.32	1.04	36	1	22.5	22.5	0	0	0	0	0	0	0	0	0	0	30	0.0000	0.0000	0.0000	0.0000;
	169	84.38	6.26	23.96	-16.2	1.02	135	1	84.38	84.38	0	0	0	0	0	0	0	0	0	0	112.5	0.0000	0.0000	0.0000	0.0000;
	174	20	6.38	10.18	-2.22	1.02	24	1	20	6	0	0	0	0	0	0	0	0	0	0	20	0.0000	0.0000	0.0000	0.0000;
	175	0	0	10.18	-2.22	1.02	24	0	20	6	0	0	0	0	0	0	0	0	0	0	20	0.0000	0.0000	0.0000	0.0000;
	176	0	0	20.36	-4.44	1.02	48	0	40	12	0	0	0	0	0	0	0	0	0	0	40	0.0000	0.0000	0.0000	0.0000;
	180	50.7	1.63	14.4	-9.73	1	81.12	1	50.7	50.7	0	0	0	0	0	0	0	0	0	0	67.6	0.0000	0.0000	0.0000	0.0000;
	185	0	0	2.13	-1.44	1	12	0	0	0	0	0	0	0	0	0	0	0	0	0	10	0.0000	0.0000	0.0000	0.0000;
	186	0	0	16.93	-11.45	1	95.4	0	0	0	0	0	0	0	0	0	0	0	0	0	79.5	0.0000	0.0000	0.0000	0.0000;
	190	7.5	1.22	2.13	-1.44	1.02	12	1	7.5	7.5	0	0	0	0	0	0	0	0	0	0	10	0.0000	0.0000	0.0000	0.0000;
	191	112.5	1.63	31.95	-21.6	1.02	180	1	112.5	112.5	0	0	0	0	0	0	0	0	0	0	150	0.0000	0.0000	0.0000	0.0000;
	194	0	0	136.28	-29.72	1	321.28	0	267.73	80.32	0	0	0	0	0	0	0	0	0	0	267.73	0.0000	0.0000	0.0000	0.0000;
	195	0	0	136.28	-29.72	1	321.28	0	267.73	80.32	0	0	0	0	0	0	0	0	0	0	267.73	0.0000	0.0000	0.0000	0.0000;
	196	0	0	136.28	-29.72	1	321.28	0	267.73	80.32	0	0	0	0	0	0	0	0	0	0	267.73	0.0000	0.0000	0.0000	0.0000;
	206	184.72	-20.5	94.02	-20.5	1	221.66	1	184.72	55.41	0	0	0	0	0	0	0	0	0	0	184.72	0.0000	0.0000	0.0000	0.0000;
	207	184.72	-20.5	94.02	-20.5	1	221.66	1	184.72	55.41	0	0	0	0	0	0	0	0	0	0	184.72	0.0000	0.0000	0.0000	0.0000;
	208	184.72	-20.5	94.02	-20.5	1	221.66	1	184.72	55.41	0	0	0	0	0	0	0	0	0	0	184.72	0.0000	0.0000	0.0000	0.0000;
	209	184.72	-20.5	94.02	-20.5	1	221.66	1	184.72	55.41	0	0	0	0	0	0	0	0	0	0	184.72	0.0000	0.0000	0.0000	0.0000;
	210	184.72	-20.5	94.02	-20.5	1	221.66	1	184.72	55.41	0	0	0	0	0	0	0	0	0	0	184.72	0.0000	0.0000	0.0000	0.0000;
	211	184.72	-6.65	94.02	-20.5	1.01	221.66	1	184.72	55.41	0	0	0	0	0	0	0	0	0	0	184.72	0.0000	0.0000	0.0000	0.0000;
	214	136.28	-26.16	38.7	-26.16	1	218.04	1	136.28	136.28	0	0	0	0	0	0	0	0	0	0	181.7	0.0000	0.0000	0.0000	0.0000;
	218	216.45	36.28	61.47	-41.56	1.04	346.32	1	216.45	216.45	0	0	0	0	0	0	0	0	0	0	288.6	0.0000	0.0000	0.0000	0.0000;
	228	28.13	-5.4	7.99	-5.4	1	45	1	28.13	28.13	0	0	0	0	0	0	0	0	0	0	37.5	0.0000	0.0000	0.0000	0.0000;
	241	127.13	0.49	36.1	-24.41	1.01	203.4	1	127.13	127.13	0	0	0	0	0	0	0	0	0	0	169.5	0.0000	0.0000	0.0000	0.0000;
	244	112.5	-10.86	31.95	-21.6	1.03	180	1	112.5	112.5	0	0	0	0	0	0	0	0	0	0	150	0.0000	0.0000	0.0000	0.0000;
	252	150	42.6	42.6	-28.8	1.04	240	1	150	150	0	0	0	0	0	0	0	0	0	0	200	0.0000	0.0000	0.0000	0.0000;
	258	97.87	19.77	27.8	-18.79	1.03	156.6	1	97.87	97.87	0	0	0	0	0	0	0	0	0	0	130.5	0.0000	0.0000	0.0000	0.0000;
	263	156.75	44.52	44.52	-30.1	1.04	250.8	1	156.75	156.75	0	0	0	0	0	0	0	0	0	0	209	0.0000	0.0000	0.0000	0.0000;
	267	0	0	0.66	-0.14	1.04	1.56	0	1.3	0.39	0	0	0	0	0	0	0	0	0	0	1.3	0.0000	0.0000	0.0000	0.0000;
	268	0	0	45.5	-9.92	1.04	107.28	0	89.4	26.82	0	0	0	0	0	0	0	0	0	0	89.4	0.0000	0.0000	0.0000	0.0000;
	269	0	0	227.52	-49.62	1.04	536.4	0	447	134.1	0	0	0	0	0	0	0	0	0	0	447	0.0000	0.0000	0.0000	0.0000;
	272	180.75	51.33	51.33	-34.7	1.04	289.2	1	180.75	180.75	0	0	0	0	0	0	0	0	0	0	241	0.0000	0.0000	0.0000	0.0000;
	279	183.88	52.22	52.22	-35.3	1.04	294.2	1	183.88	183.88	0	0	0	0	0	0	0	0	0	0	245.17	0.0000	0.0000	0.0000	0.0000;
	280	183.88	52.22	52.22	-35.3	1.04	294.2	1	183.88	183.88	0	0	0	0	0	0	0	0	0	0	245.17	0.0000	0.0000	0.0000	0.0000;
	281	183.88	52.22	52.22	-35.3	1.04	294.2	1	183.88	183.88	0	0	0	0	0	0	0	0	0	0	245.17	0.0000	0.0000	0.0000	0.0000;
	284	124.22	35.28	35.28	-23.85	1.04	198.75	1	124.22	124.22	0	0	0	0	0	0	0	0	0	0	165.63	0.0000	0.0000	0.0000	0.0000;
	285	124.22	35.28	35.28	-23.85	1.04	198.75	1	124.22	124.22	0	0	0	0	0	0	0	0	0	0	165.63	0.0000	0.0000	0.0000	0.0000;
	286	124.22	35.28	35.28	-23.85	1.04	198.75	1	124.22	124.22	0	0	0	0	0	0	0	0	0	0	165.63	0.0000	0.0000	0.0000	0.0000;
	287	124.22	35.28	35.28	-23.85	1.04	198.75	1	124.22	124.22	0	0	0	0	0	0	0	0	0	0	165.63	0.0000	0.0000	0.0000	0.0000;
	289	60.37	-10.43	17.15	-11.59	1	96.6	1	60.37	60.37	0	0	0	0	0	0	0	0	0	0	80.5	0.0000	0.0000	0.0000	0.0000;
	292	112.5	28.58	31.95	-21.6	1.04	180	1	112.5	112.5	0	0	0	0	0	0	0	0	0	0	150	0.0000	0.0000	0.0000	0.0000;
	295	127.65	-24.51	36.25	-24.51	1	204.24	1	127.65	127.65	0	0	0	0	0	0	0	0	0	0	170.2	0.0000	0.0000	0.0000	0.0000;
	298	74.85	-14.26	21.26	-14.37	1	119.76	1	74.85	74.85	0	0	0	0	0	0	0	0	0	0	99.8	0.0000	0.0000	0.0000	0.0000;
	305	186.75	53.04	53.04	-35.86	1.04	298.8	1	186.75	186.75	0	0	0	0	0	0	0	0	0	0	249	0.0000	0.0000	0.0000	0.0000;
	308	174.37	13.62	49.52	-33.48	1	279	1	174.37	174.37	0	0	0	0	0	0	0	0	0	0	232.5	0.0000	0.0000	0.0000	0.0000;
	310	56.25	1.8	15.97	-10.8	1	90	1	56.25	56.25	0	0	0	0	0	0	0	0	0	0	75	0.0000	0.0000	0.0000	0.0000;
	311	0	0	15.97	-10.8	1	90	0	0	0	0	0	0	0	0	0	0	0	0	0	75	0.0000	0.0000	0.0000	0.0000;
	316	150	42.6	42.6	-28.8	1.04	240	1	150	150	0	0	0	0	0	0	0	0	0	0	200	0.0000	0.0000	0.0000	0.0000;
	319	90.45	20.89	25.69	-17.37	1.04	144.72	1	90.45	90.45	0	0	0	0	0	0	0	0	0	0	120.6	0.0000	0.0000	0.0000	0.0000;
	322	120	28.09	34.08	-23.04	1.04	192	1	120	120	0	0	0	0	0	0	0	0	0	0	160	0.0000	0.0000	0.0000	0.0000;
	329	15	-0.74	5.76	-0.74	1	18	1	15	4.5	0	0	0	0	0	0	0	0	0	0	15	0.0000	0.0000	0.0000	0.0000;
	330	54.9	-2.69	21.08	-2.69	1	65.88	1	54.9	16.47	0	0	0	0	0	0	0	0	0	0	54.9	0.0000	0.0000	0.0000	0.0000;
	334	63	17.89	17.89	-12.1	1.04	100.8	1	63	63	0	0	0	0	0	0	0	0	0	0	84	0.0000	0.0000	0.0000	0.0000;
	336	56.1	8.2	15.93	-10.77	1	89.76	1	56.1	56.1	0	0	0	0	0	0	0	0	0	0	74.8	0.0000	0.0000	0.0000	0.0000;
	337	56.1	8.9	15.93	-10.77	1	89.76	1	56.1	56.1	0	0	0	0	0	0	0	0	0	0	74.8	0.0000	0.0000	0.0000	0.0000;
	341	47.25	-1.99	13.42	-9.07	1	75.6	1	47.25	47.25	0	0	0	0	0	0	0	0	0	0	63	0.0000	0.0000	0.0000	0.0000;
	342	90	-4.04	25.56	-17.28	1	144	1	90	90	0	0	0	0	0	0	0	0	0	0	120	0.0000	0.0000	0.0000	0.0000;
	344	29.7	0	0	0	1	47.52	1	29.7	29.7	0	0	0	0	0	0	0	0	0	0	39.6	0.0000	0.0000	0.0000	0.0000;
	346	147.75	-12.96	41.96	-28.37	1	236.4	1	147.75	147.75	0	0	0	0	0	0	0	0	0	0	197	0.0000	0.0000	0.0000	0.0000;
	351	101.25	-19.44	28.76	-19.44	1	162	1	101.25	101.25	0	0	0	0	0	0	0	0	0	0	135	0.0000	0.0000	0.0000	0.0000;
	353	94.88	-18.22	26.94	-18.22	1	151.8	1	94.88	94.88	0	0	0	0	0	0	0	0	0	0	126.5	0.0000	0.0000	0.0000	0.0000;
	355	85.5	20.7	24.28	-16.42	1.02	136.8	1	85.5	85.5	0	0	0	0	0	0	0	0	0	0	114	0.0000	0.0000	0.0000	0.0000;
	357	0	0	26.11	-5.69	1.04	61.56	0	51.3	15.39	0	0	0	0	0	0	0	0	0	0	51.3	0.0000	0.0000	0.0000	0.0000;
	357	0	0	26.11	-5.69	1.04	61.56	0	51.3	15.39	0	0	0	0	0	0	0	0	0	0	51.3	0.0000	0.0000	0.0000	0.0000;
	357	0	0	26.11	-5.69	1.04	61.56	0	51.3	15.39	0	0	0	0	0	0	0	0	0	0	51.3	0.0000	0.0000	0.0000	0.0000;
	361	75.9	21.56	21.56	-14.57	1.03	121.44	1	75.9	75.9	0	0	0	0	0	0	0	0	0	0	101.2	0.0000	0.0000	0.0000	0.0000;
	365	68.62	-13.18	19.49	-13.18	1	109.8	1	68.62	68.62	0	0	0	0	0	0	0	0	0	0	91.5	0.0000	0.0000	0.0000	0.0000;
	380	151.2	9.21	42.94	-29.03	1.03	241.92	1	151.2	151.2	0	0	0	0	0	0	0	0	0	0	201.6	0.0000	0.0000	0.0000	0.0000;
	396	410	27.71	191.06	-50.02	1.03	492	1	410	123	0	0	0	0	0	0	0	0	0	0	410	0.0000	0.0000	0.0000	0.0000;
	400	535.26	-17.71	290.04	-75.93	1.01	746.88	1	622.4	186.72	0	0	0	0	0	0	0	0	0	0	622.4	0.0000	0.0000	0.0000	0.0000;
	415	31.5	1.43	12.1	-1.54	1.02	37.8	1	31.5	9.45	0	0	0	0	0	0	0	0	0	0	31.5	0.0000	0.0000	0.0000	0.0000;
	416	9.6	0.73	3.69	-0.47	1.02	11.52	1	9.6	2.88	0	0	0	0	0	0	0	0	0	0	9.6	0.0000	0.0000	0.0000	0.0000;
	417	66	0.28	25.34	-3.23	1.02	79.2	1	66	19.8	0	0	0	0	0	0	0	0	0	0	66	0.0000	0.0000	0.0000	0.0000;
	420	150	-17.24	42.6	-28.8	1	240	1	150	150	0	0	0	0	0	0	0	0	0	0	200	0.0000	0.0000	0.0000	0.0000;
	422	44.2	22.5	22.5	-4.91	1.04	53.04	1	44.2	13.26	0	0	0	0	0	0	0	0	0	0	44.2	0.0000	0.0000	0.0000	0.0000;
	428	144	19.52	73.3	-15.98	1.03	172.8	1	144	43.2	0	0	0	0	0	0	0	0	0	0	144	0.0000	0.0000	0.0000	0.0000;
	429	144	19.35	73.3	-15.98	1.03	172.8	1	144	43.2	0	0	0	0	0	0	0	0	0	0	144	0.0000	0.0000	0.0000	0.0000;
	430	144	16.52	73.3	-15.98	1.03	172.8	1	144	43.2	0	0	0	0	0	0	0	0	0	0	144	0.0000	0.0000	0.0000	0.0000;
	431	172.33	21.06	87.72	-19.13	1.03	206.8	1	172.33	51.7	0	0	0	0	0	0	0	0	0	0	172.33	0.0000	0.0000	0.0000	0.0000;
	432	172.33	17.14	87.72	-19.13	1.03	206.8	1	172.33	51.7	0	0	0	0	0	0	0	0	0	0	172.33	0.0000	0.0000	0.0000	0.0000;
	433	172.33	23.1	87.72	-19.13	1.03	206.8	1	172.33	51.7	0	0	0	0	0	0	0	0	0	0	172.33	0.0000	0.0000	0.0000	0.0000;
	435	47	11.48	23.92	-5.22	1.02	56.4	1	47	14.1	0	0	0	0	0	0	0	0	0	0	47	0.0000	0.0000	0.0000	0.0000;
	445	0	0	89.75	-19.57	1.03	211.6	0	176.33	52.9	0	0	0	0	0	0	0	0	0	0	176.33	0.0000	0.0000	0.0000	0.0000;
	446	52.9	20.23	89.75	-19.57	1.03	211.6	1	176.33	52.9	0	0	0	0	0	0	0	0	0	0	176.33	0.0000	0.0000	0.0000	0.0000;
	447	52.9	18.11	89.75	-19.57	1.03	211.6	1	176.33	52.9	0	0	0	0	0	0	0	0	0	0	176.33	0.0000	0.0000	0.0000	0.0000;
	452	243.4	31	123.89	-27.02	1.04	292.08	1	243.4	73.02	0	0	0	0	0	0	0	0	0	0	243.4	0.0000	0.0000	0.0000	0.0000;
	453	243.4	31.87	123.89	-27.02	1.04	292.08	1	243.4	73.02	0	0	0	0	0	0	0	0	0	0	243.4	0.0000	0.0000	0.0000	0.0000;
	454	243.4	48.8	123.89	-27.02	1.04	292.08	1	243.4	73.02	0	0	0	0	0	0	0	0	0	0	243.4	0.0000	0.0000	0.0000	0.0000;
	455	253.44	53.31	179.17	-39.07	1.04	422.4	1	352	105.6	0	0	0	0	0	0	0	0	0	0	352	0.0000	0.0000	0.0000	0.0000;
	460	0	0	0.65	-0.17	1.01	1.68	0	1.4	0.42	0	0	0	0	0	0	0	0	0	0	1.4	0.0000	0.0000	0.0000	0.0000;
	461	23.5	3.02	10.95	-2.87	1.01	28.2	1	23.5	7.05	0	0	0	0	0	0	0	0	0	0	23.5	0.0000	0.0000	0.0000	0.0000;
	462	0	0	3.54	-0.93	1.01	9.12	0	7.6	2.28	0	0	0	0	0	0	0	0	0	0	7.6	0.0000	0.0000	0.0000	0.0000;
	463	28	1.77	13.05	-3.42	1.01	33.6	1	28	8.4	0	0	0	0	0	0	0	0	0	0	28	0.0000	0.0000	0.0000	0.0000;
	464	28	6.1	13.05	-3.42	1.01	33.6	1	28	8.4	0	0	0	0	0	0	0	0	0	0	28	0.0000	0.0000	0.0000	0.0000;
	465	28	2.76	13.05	-3.42	1.01	33.6	1	28	8.4	0	0	0	0	0	0	0	0	0	0	28	0.0000	0.0000	0.0000	0.0000;
	466	0	0	13.05	-3.42	1.01	33.6	0	28	8.4	0	0	0	0	0	0	0	0	0	0	28	0.0000	0.0000	0.0000	0.0000;
	467	28	2.41	13.05	-3.42	1.01	33.6	1	28	8.4	0	0	0	0	0	0	0	0	0	0	28	0.0000	0.0000	0.0000	0.0000;
	468	0	0	13.05	-3.42	1.01	33.6	0	28	8.4	0	0	0	0	0	0	0	0	0	0	28	0.0000	0.0000	0.0000	0.0000;
	475	135	20.08	38.34	-25.92	1.01	216	1	135	135	0	0	0	0	0	0	0	0	0	0	180	0.0000	0.0000	0.0000	0.0000;
	485	39.54	21.45	67.09	-14.63	1.04	158.16	1	131.8	39.54	0	0	0	0	0	0	0	0	0	0	131.8	0.0000	0.0000	0.0000	0.0000;
	486	39.54	20	67.09	-14.63	1.04	158.16	1	131.8	39.54	0	0	0	0	0	0	0	0	0	0	131.8	0.0000	0.0000	0.0000	0.0000;
	503	0	0	17.1	-3.73	1	40.32	0	33.6	10.08	0	0	0	0	0	0	0	0	0	0	33.6	0.0000	0.0000	0.0000	0.0000;
	504	10.08	-3.73	17.1	-3.73	1	40.32	1	33.6	10.08	0	0	0	0	0	0	0	0	0	0	33.6	0.0000	0.0000	0.0000	0.0000;
	505	10.08	-3.73	17.1	-3.73	1	40.32	1	33.6	10.08	0	0	0	0	0	0	0	0	0	0	33.6	0.0000	0.0000	0.0000	0.0000;
	506	10.08	-3.73	17.1	-3.73	1	40.32	1	33.6	10.08	0	0	0	0	0	0	0	0	0	0	33.6	0.0000	0.0000	0.0000	0.0000;
	507	0	0	34.2	-7.46	1	80.64	0	67.2	20.16	0	0	0	0	0	0	0	0	0	0	67.2	0.0000	0.0000	0.0000	0.0000;
	508	0	0	33.59	-7.33	1	79.2	0	66	19.8	0	0	0	0	0	0	0	0	0	0	66	0.0000	0.0000	0.0000	0.0000;
	512	141	27.28	40.04	-27.07	1.04	225.6	1	141	141	0	0	0	0	0	0	0	0	0	0	188	0.0000	0.0000	0.0000	0.0000;
	523	212.4	60.32	60.32	-40.78	1.04	339.84	1	212.4	212.4	0	0	0	0	0	0	0	0	0	0	283.2	0.0000	0.0000	0.0000	0.0000;
	530	197.77	69	100.66	-21.95	1.03	237.32	1	197.77	59.33	0	0	0	0	0	0	0	0	0	0	197.77	0.0000	0.0000	0.0000	0.0000;
	531	197.77	36.28	100.66	-21.95	1.03	237.32	1	197.77	59.33	0	0	0	0	0	0	0	0	0	0	197.77	0.0000	0.0000	0.0000	0.0000;
	532	197.77	32.31	100.66	-21.95	1.03	237.32	1	197.77	59.33	0	0	0	0	0	0	0	0	0	0	197.77	0.0000	0.0000	0.0000	0.0000;
	533	0	0	4.58	-1	1.03	10.8	0	9	2.7	0	0	0	0	0	0	0	0	0	0	9	0.0000	0.0000	0.0000	0.0000;
	536	150.75	-28.94	42.81	-28.94	1	241.2	1	150.75	150.75	0	0	0	0	0	0	0	0	0	0	201	0.0000	0.0000	0.0000	0.0000;
	547	112.5	-6.14	31.95	-21.6	1.04	180	1	112.5	112.5	0	0	0	0	0	0	0	0	0	0	150	0.0000	0.0000	0.0000	0.0000;
	551	150.07	42.62	42.62	-28.81	1.04	240.12	1	150.07	150.07	0	0	0	0	0	0	0	0	0	0	200.1	0.0000	0.0000	0.0000	0.0000;
	553	152.25	43.24	43.24	-29.23	1.03	243.6	1	152.25	152.25	0	0	0	0	0	0	0	0	0	0	203	0.0000	0.0000	0.0000	0.0000;
	562	75	22.26	38.17	-8.33	1.02	90	1	75	22.5	0	0	0	0	0	0	0	0	0	0	75	0.0000	0.0000	0.0000	0.0000;
	562	183.77	22.26	93.54	-20.4	1.02	220.52	1	183.77	55.13	0	0	0	0	0	0	0	0	0	0	183.77	0.0000	0.0000	0.0000	0.0000;
	562	0	0	12.22	-2.66	1.02	28.8	0	24	7.2	0	0	0	0	0	0	0	0	0	0	24	0.0000	0.0000	0.0000	0.0000;
	562	61	22.26	31.05	-6.77	1.02	73.2	1	61	18.3	0	0	0	0	0	0	0	0	0	0	61	0.0000	0.0000	0.0000	0.0000;
	562	10.4	5.29	5.29	-1.15	1.02	12.48	1	10.4	3.12	0	0	0	0	0	0	0	0	0	0	10.4	0.0000	0.0000	0.0000	0.0000;
	562	267	22.26	135.9	-29.64	1.02	320.4	1	267	80.1	0	0	0	0	0	0	0	0	0	0	267	0.0000	0.0000	0.0000	0.0000;
	562	267	22.26	135.9	-29.64	1.02	320.4	1	267	80.1	0	0	0	0	0	0	0	0	0	0	267	0.0000	0.0000	0.0000	0.0000;
	562	267	22.26	135.9	-29.64	1.02	320.4	1	267	80.1	0	0	0	0	0	0	0	0	0	0	267	0.0000	0.0000	0.0000	0.0000;
	562	183.77	22.26	93.54	-20.4	1.02	220.52	1	183.77	55.13	0	0	0	0	0	0	0	0	0	0	183.77	0.0000	0.0000	0.0000	0.0000;
	562	183.77	22.26	93.54	-20.4	1.02	220.52	1	183.77	55.13	0	0	0	0	0	0	0	0	0	0	183.77	0.0000	0.0000	0.0000	0.0000;
	565	151.2	42.94	42.94	-29.03	1.02	241.92	1	151.2	151.2	0	0	0	0	0	0	0	0	0	0	201.6	0.0000	0.0000	0.0000	0.0000;
	583	90	5.69	25.56	-17.28	1	144	1	90	90	0	0	0	0	0	0	0	0	0	0	120	0.0000	0.0000	0.0000	0.0000;
	586	0	0	2.44	-0.53	1.04	5.76	0	4.8	1.44	0	0	0	0	0	0	0	0	0	0	4.8	0.0000	0.0000	0.0000	0.0000;
	598	0	0	2.14	-0.47	1.02	5.04	0	4.2	1.26	0	0	0	0	0	0	0	0	0	0	4.2	0.0000	0.0000	0.0000	0.0000;
	599	0	0	3.26	-0.71	1.02	7.68	0	6.4	1.92	0	0	0	0	0	0	0	0	0	0	6.4	0.0000	0.0000	0.0000	0.0000;
	600	308.47	71.03	157.01	-34.24	1.02	370.16	1	308.47	92.54	0	0	0	0	0	0	0	0	0	0	308.47	0.0000	0.0000	0.0000	0.0000;
	601	308.47	69.54	157.01	-34.24	1.02	370.16	1	308.47	92.54	0	0	0	0	0	0	0	0	0	0	308.47	0.0000	0.0000	0.0000	0.0000;
	602	308.47	150.83	157.01	-34.24	1.02	370.16	1	308.47	92.54	0	0	0	0	0	0	0	0	0	0	308.47	0.0000	0.0000	0.0000	0.0000;
	603	308.47	52.98	157.01	-34.24	1.02	370.16	1	308.47	92.54	0	0	0	0	0	0	0	0	0	0	308.47	0.0000	0.0000	0.0000	0.0000;
	604	308.47	73.29	157.01	-34.24	1.02	370.16	1	308.47	92.54	0	0	0	0	0	0	0	0	0	0	308.47	0.0000	0.0000	0.0000	0.0000;
	605	308.47	65.89	157.01	-34.24	1.02	370.16	1	308.47	92.54	0	0	0	0	0	0	0	0	0	0	308.47	0.0000	0.0000	0.0000	0.0000;
	614	84.7	43.11	43.11	-9.4	1.02	101.64	1	84.7	25.41	0	0	0	0	0	0	0	0	0	0	84.7	0.0000	0.0000	0.0000	0.0000;
	615	25.2	12.83	12.83	-2.8	1.02	30.24	1	25.2	7.56	0	0	0	0	0	0	0	0	0	0	25.2	0.0000	0.0000	0.0000	0.0000;
	620	0	0	161.53	-35.23	1	380.82	0	317.35	95.2	0	0	0	0	0	0	0	0	0	0	317.35	0.0000	0.0000	0.0000	0.0000;
	621	317.35	9.32	161.53	-35.23	1	380.82	1	317.35	95.2	0	0	0	0	0	0	0	0	0	0	317.35	0.0000	0.0000	0.0000	0.0000;
	628	10.6	5.4	5.4	-1.18	1.03	12.72	1	10.6	3.18	0	0	0	0	0	0	0	0	0	0	10.6	0.0000	0.0000	0.0000	0.0000;
	629	0	0	0.92	-0.2	1.03	2.16	0	1.8	0.54	0	0	0	0	0	0	0	0	0	0	1.8	0.0000	0.0000	0.0000	0.0000;
	630	376.91	195.02	223.08	-48.65	1.03	525.92	1	438.27	131.48	0	0	0	0	0	0	0	0	0	0	438.27	0.0000	0.0000	0.0000	0.0000;
	631	376.91	184.47	223.08	-48.65	1.03	525.92	1	438.27	131.48	0	0	0	0	0	0	0	0	0	0	438.27	0.0000	0.0000	0.0000	0.0000;
	632	376.91	173.16	223.08	-48.65	1.03	525.92	1	438.27	131.48	0	0	0	0	0	0	0	0	0	0	438.27	0.0000	0.0000	0.0000	0.0000;
	652	0	0	16.05	-2.05	1.01	50.16	0	41.8	12.54	0	0	0	0	0	0	0	0	0	0	41.8	0.0000	0.0000	0.0000	0.0000;
...
];

%% branch data
%	fbus	tbus	r	x	b	rateA	rateB	rateC	ratio	angle	status	angmin	angmax	Pf	Qf	Pt	Qt	mu_Sf	mu_St	mu_angmin	mu_angmax
mpc.branch = [
	1	64	0.00524	0.0358	0.00609	221	0	0	0	0	1	0	0	98.6800	9.8000	-98.1600	-6.7800	0.0000	0.0000	0.0000	0.0000;
	1	64	0.00524	0.0358	0.00609	221	0	0	0	0	1	0	0	98.6800	9.8000	-98.1600	-6.7800	0.0000	0.0000	0.0000	0.0000;
	1	71	0.00435	0.02808	0.00536	221	0	0	0	0	1	0	0	-109.0700	-12.7500	109.6100	15.6900	0.0000	0.0000	0.0000	0.0000;
	1	71	0.00435	0.02808	0.00536	221	0	0	0	0	1	0	0	-109.0700	-12.7500	109.6100	15.6900	0.0000	0.0000	0.0000	0.0000;
	2	7	0.07776	0.46693	0.06336	98	0	0	0	0	1	0	0	-2.3600	-3.2000	2.3600	-3.6000	0.0000	0.0000	0.0000	0.0000;
	10	2	0.05552	0.1357	0.01777	98	0	0	0	0	1	0	0	13.1400	-0.5500	-13.0500	-1.1600	0.0000	0.0000	0.0000	0.0000;
	4	3	0.0045	0.11582	0	250	0	0	1	0	1	0	0	-55.8100	14.3000	55.9500	-10.5300	0.0000	0.0000	0.0000	0.0000;
	22	3	0.00485	0.02012	0.00341	221	0	0	0	0	1	0	0	45.2500	10.4600	-45.1500	-10.3700	0.0000	0.0000	0.0000	0.0000;
	55	3	0.01574	0.03782	0.00513	98	0	0	0	0	1	0	0	10.8900	-21.1900	-10.8100	20.9000	0.0000	0.0000	0.0000	0.0000;
	4	357	0.0042	0.03	0.055	523	0	0	0	0	1	0	0	214.0600	-17.2400	-212.1600	25.1800	0.0000	0.0000	0.0000	0.0000;
	6	5	0.00602	0.14707	0	42	0	0	1	0	1	0	0	25.7300	-2.2000	-25.6800	3.1800	0.0000	0.0000	0.0000	0.0000;
	25	5	0.01842	0.0821	0.01204	149	0	0	0	0	1	0	0	27.7800	3.3700	-27.6400	-3.9600	0.0000	0.0000	0.0000	0.0000;
	5	61	0.00599	0.02484	0.00422	221	0	0	0	0	1	0	0	95.1800	-24.1700	-94.6000	26.1300	0.0000	0.0000	0.0000	0.0000;
	67	5	0.01711	0.04181	0.00548	98	0	0	0	0	1	0	0	42.2600	-24.5100	-41.8500	24.9500	0.0000	0.0000	0.0000	0.0000;
	7	15	0.06224	0.37375	0.05072	98	0	0	0	0	1	0	0	2.1200	-4.7200	-2.1100	-0.7500	0.0000	0.0000	0.0000	0.0000;
	31	7	0.04803	0.27434	0.04123	98	0	0	0	0	1	0	0	11.5800	-10.1900	-11.4900	6.3400	0.0000	0.0000	0.0000	0.0000;
	9	8	0.00455	0.09471	0	120	0	0	1	0	1	0	0	61.8800	-11.8800	-61.7000	15.4600	0.0000	0.0000	0.0000	0.0000;
	8	32	0.04501	0.11002	0.01441	98	0	0	0	0	1	0	0	38.3000	0.5700	-37.6800	-0.5700	0.0000	0.0000	0.0000	0.0000;
	8	69	0.0083	0.03628	0.00553	149	0	0	0	0	1	0	0	23.4000	-16.0300	-23.3400	15.7100	0.0000	0.0000	0.0000	0.0000;
	11	10	0.00721	0.3246	0	46	0	0	1	0	1	0	0	7.5000	0.0000	-7.5000	0.1700	0.0000	0.0000	0.0000	0.0000;
	10	15	0.04703	0.28243	0.03833	98	0	0	0	0	1	0	0	5.4100	-2.7300	-5.4000	-1.3700	0.0000	0.0000	0.0000	0.0000;
	10	30	0.0616	0.3699	0.0502	98	0	0	0	0	1	0	0	-11.0600	3.1100	11.1500	-8.0000	0.0000	0.0000	0.0000	0.0000;
	12	87	0.04934	0.20469	0.03473	149	0	0	0	0	1	0	0	-85.9900	23.9600	89.5400	-13.1200	0.0000	0.0000	0.0000	0.0000;
	275	12	0.0571	0.24977	0.03804	149	0	0	0	0	1	0	0	-79.4100	25.6000	83.0000	-14.1700	0.0000	0.0000	0.0000	0.0000;
	13	31	0.04509	0.27078	0.03675	98	0	0	0	0	1	0	0	21.0500	-10.0000	-20.8200	7.5700	0.0000	0.0000	0.0000	0.0000;
	47	13	0.00947	0.06117	0.01167	221	0	0	0	0	1	0	0	60.9500	-11.2000	-60.5900	12.3300	0.0000	0.0000	0.0000	0.0000;
	86	13	0.079	0.19311	0.02529	98	0	0	0	0	1	0	0	-10.1600	8.3900	10.3200	-10.6100	0.0000	0.0000	0.0000	0.0000;
	14	47	0.03566	0.14794	0.0251	149	0	0	0	0	1	0	0	-7.1300	9.4600	7.1900	-11.8000	0.0000	0.0000	0.0000	0.0000;
	14	83	0.04105	0.18293	0.02682	149	0	0	0	0	1	0	0	4.9100	-10.0900	-4.8700	7.4400	0.0000	0.0000	0.0000	0.0000;
	16	34	0.01828	0.10976	0.01489	98	0	0	0	0	1	0	0	-14.1000	13.5600	14.1700	-14.6500	0.0000	0.0000	0.0000	0.0000;
	68	16	0.02773	0.15837	0.0238	98	0	0	0	0	1	0	0	-11.0900	-18.4000	11.2100	16.7000	0.0000	0.0000	0.0000	0.0000;
	18	17	0.03227	0.07887	0.01033	98	0	0	0	0	1	0	0	17.7300	1.0000	-17.6200	-1.7600	0.0000	0.0000	0.0000	0.0000;
	17	29	0.03244	0.14188	0.02161	149	0	0	0	0	1	0	0	92.7400	-27.0600	-89.6500	38.4400	0.0000	0.0000	0.0000	0.0000;
	37	17	0.00752	0.03352	0.00491	221	0	0	0	0	1	0	0	55.1400	-26.1800	-54.8500	26.9900	0.0000	0.0000	0.0000	0.0000;
	47	17	0.036	0.156	0.024	150	0	0	0	0	1	0	0	39.1700	3.3800	-38.6200	-3.3700	0.0000	0.0000	0.0000	0.0000;
	24	18	0.01094	0.06572	0.00892	98	0	0	0	0	1	0	0	17.8300	0.3500	-17.7900	-1.0200	0.0000	0.0000	0.0000	0.0000;
	19	40	0.04978	0.20651	0.03504	149	0	0	0	0	1	0	0	8.9800	0.6100	-8.9400	-3.9600	0.0000	0.0000	0.0000	0.0000;
	19	45	0.01522	0.0372	0.00487	221	0	0	0	0	1	0	0	142.9800	9.0300	-139.9000	-1.9800	0.0000	0.0000	0.0000	0.0000;
	19	71	0.0044	0.028	0.0054	225	0	0	0	0	1	0	0	-147.5100	66.7400	148.6500	-60.0400	0.0000	0.0000	0.0000	0.0000;
	71	19	0.0044	0.028	0.0054	225	0	0	0	0	1	0	0	148.6500	-60.0400	-147.5100	66.7400	0.0000	0.0000	0.0000	0.0000;
	19	84	0.03	0.16	0.025	220	0	0	0	0	1	0	0	81.3000	-15.5100	-79.2800	23.7000	0.0000	0.0000	0.0000	0.0000;
	21	20	0.00327	0.07812	0	250	0	0	1	0	1	0	0	149.6300	-12.6900	-148.8900	30.3000	0.0000	0.0000	0.0000	0.0000;
	25	20	0.00828	0.03434	0.00583	149	0	0	0	0	1	0	0	65.0000	-19.2000	-64.6300	20.1400	0.0000	0.0000	0.0000	0.0000;
	84	20	0.01056	0.06337	0.0086	221	0	0	0	0	1	0	0	60.0200	-4.8700	-59.6500	6.2200	0.0000	0.0000	0.0000	0.0000;
	20	283	0.0189	0.06	0.006	300	0	0	0	0	1	0	0	187.4500	3.2700	-180.9600	16.7400	0.0000	0.0000	0.0000	0.0000;
	20	354	0.00996	0.06938	0.01134	221	0	0	0	0	1	0	0	85.7200	18.6200	-84.9700	-14.5300	0.0000	0.0000	0.0000	0.0000;
	23	22	0.00535	0.11733	0	250	0	0	1	0	1	0	0	135.0000	10.8800	-134.0400	10.2200	0.0000	0.0000	0.0000	0.0000;
	22	28	0.01433	0.09253	0.01765	221	0	0	0	0	1	0	0	44.3900	-10.3400	-44.1000	10.4600	0.0000	0.0000	0.0000	0.0000;
	22	28	0.01433	0.09253	0.01765	221	0	0	0	0	1	0	0	44.3900	-10.3400	-44.1000	10.4600	0.0000	0.0000	0.0000	0.0000;
	24	90	0.01414	0.06303	0.00924	149	0	0	0	0	1	0	0	-80.8700	-18.2100	81.8500	21.6200	0.0000	0.0000	0.0000	0.0000;
	26	25	0.0042	0.18046	0	104	0	0	1	0	1	0	0	93.1500	-0.1700	-92.7900	15.8200	0.0000	0.0000	0.0000	0.0000;
	27	45	0.02505	0.10957	0.01669	221	0	0	0	0	1	0	0	-109.6200	64.6900	113.5600	-49.1200	0.0000	0.0000	0.0000	0.0000;
	56	27	0.03121	0.0763	0.00999	250	0	0	0	0	1	0	0	-8.3200	14.8000	8.4100	-15.6300	0.0000	0.0000	0.0000	0.0000;
	28	333	0.00428	0.01875	0.00286	250	0	0	0	0	1	0	0	78.1900	-23.7500	-77.9000	24.7000	0.0000	0.0000	0.0000	0.0000;
	29	56	0.02054	0.11733	0.01763	221	0	0	0	0	1	0	0	6.4700	-21.7000	-6.3700	20.4300	0.0000	0.0000	0.0000	0.0000;
	30	38	0.07404	0.42285	0.06354	98	0	0	0	0	1	0	0	-19.9600	1.1000	20.2500	-6.2000	0.0000	0.0000	0.0000	0.0000;
	83	30	0.06537	0.37334	0.0561	98	0	0	0	0	1	0	0	15.9700	-4.9900	-15.8100	-0.0800	0.0000	0.0000	0.0000	0.0000;
	33	32	0.00283	0.06758	0	170	0	0	1	0	1	0	0	-103.4500	33.5000	103.7600	-26.0200	0.0000	0.0000	0.0000	0.0000;
	32	36	0.01956	0.11746	0.01594	98	0	0	0	0	1	0	0	6.4100	7.6600	-6.3900	-9.1600	0.0000	0.0000	0.0000	0.0000;
	38	32	0.045	0.11	0.015	155	0	0	0	0	1	0	0	74.9500	-14.4900	-72.4900	18.9200	0.0000	0.0000	0.0000	0.0000;
	33	81	0.003	0.031	0.059	548	0	0	0	0	1	0	0	3.2900	31.5400	-3.2600	-37.4300	0.0000	0.0000	0.0000	0.0000;
	33	274	0.0139	0.136	0.262	647	0	0	0	0	1	0	0	308.6600	1.7500	-296.2300	91.3700	0.0000	0.0000	0.0000	0.0000;
	35	34	0.004381	0.08496	0	88	0	0	1	0	1	0	0	67.5000	-7.3300	-67.3000	11.2400	0.0000	0.0000	0.0000	0.0000;
	67	34	0.00795	0.04771	0.00647	98	0	0	0	0	1	0	0	-52.9000	-2.7200	53.1300	3.4100	0.0000	0.0000	0.0000	0.0000;
	88	36	0.02065	0.11793	0.01772	98	0	0	0	0	1	0	0	7.2300	-6.9900	-7.2100	5.3100	0.0000	0.0000	0.0000	0.0000;
	37	71	0.00669	0.04319	0.00824	300	0	0	0	0	1	0	0	-157.3700	-2.7900	159.0900	13.0800	0.0000	0.0000	0.0000	0.0000;
	39	38	0.00201	0.08591	0	200	0	0	1	0	1	0	0	110.6300	-21.2400	-110.3800	31.9000	0.0000	0.0000	0.0000	0.0000;
	82	38	0.01115	0.04969	0.00729	149	0	0	0	0	1	0	0	36.2700	-2.5100	-36.1300	2.3400	0.0000	0.0000	0.0000	0.0000;
	83	38	0.01	0.05	0.007	221	0	0	0	0	1	0	0	-51.0500	14.1300	51.3100	-13.5500	0.0000	0.0000	0.0000	0.0000;
	40	90	0.02991	0.13329	0.01955	149	0	0	0	0	1	0	0	-35.4200	-8.6100	35.8100	8.3700	0.0000	0.0000	0.0000	0.0000;
	42	41	0.004186	0.11123	0	97	0	0	1	0	1	0	0	0.0000	0.0000	0.0000	0.0000	0.0000	0.0000	0.0000	0.0000;
	43	41	0.003	0.12844	0	65	0	0	1	0	1	0	0	44.1000	-2.2700	-44.0400	4.7800	0.0000	0.0000	0.0000	0.0000;
	65	41	0.00386	0.02203	0.00331	98	0	0	0	0	1	0	0	47.2700	7.6600	-47.1900	-7.4900	0.0000	0.0000	0.0000	0.0000;
	41	67	0.00393	0.01722	0.00262	149	0	0	0	0	1	0	0	91.2300	2.7100	-90.9000	-1.5500	0.0000	0.0000	0.0000	0.0000;
	44	243	0.03857	0.17192	0.02521	149	0	0	0	0	1	0	0	79.1500	-33.8000	-76.3700	43.5400	0.0000	0.0000	0.0000	0.0000;
	354	44	0.02731	0.19029	0.03111	221	0	0	0	0	1	0	0	96.4600	-14.4300	-93.8300	29.6400	0.0000	0.0000	0.0000	0.0000;
	45	64	0.00545	0.03794	0.0062	221	0	0	0	0	1	0	0	-72.2300	23.1800	72.5500	-21.5100	0.0000	0.0000	0.0000	0.0000;
	87	46	0.03262	0.14269	0.02173	149	0	0	0	0	1	0	0	109.4800	-8.2300	-106.0100	21.0000	0.0000	0.0000	0.0000	0.0000;
	46	233	0.05654	0.23454	0.0398	149	0	0	0	0	1	0	0	94.9200	-10.9300	-90.2600	25.9300	0.0000	0.0000	0.0000	0.0000;
	48	47	0.003346	0.06576	0	140	0	0	1	0	1	0	0	0.0000	0.0000	0.0000	0.0000	0.0000	0.0000	0.0000	0.0000;
	49	47	0.00276	0.11783	0	139	0	0	1	0	1	0	0	0.0000	0.0000	0.0000	0.0000	0.0000	0.0000	0.0000	0.0000;
	50	47	0.00313	0.09941	0	124	0	0	1	0	1	0	0	89.4000	-5.1200	-89.1500	13.0900	0.0000	0.0000	0.0000	0.0000;
	51	47	0.005603	0.1283	0	117	0	0	1	0	1	0	0	89.4000	-3.6300	-88.9500	13.9000	0.0000	0.0000	0.0000	0.0000;
	52	47	0.003679	0.0826	0	110	0	0	1	0	1	0	0	89.4000	-8.2200	-89.1000	14.8800	0.0000	0.0000	0.0000	0.0000;
	53	47	0.0023	0.08808	0	250	0	0	1	0	1	0	0	-131.8800	26.2000	132.2800	-10.8700	0.0000	0.0000	0.0000	0.0000;
	47	85	0.00947	0.06117	0.01167	221	0	0	0	0	1	0	0	27.6200	-11.3800	-27.5400	10.7200	0.0000	0.0000	0.0000	0.0000;
	53	81	0.003	0.03	0.06	548	0	0	0	0	1	0	0	131.8800	-26.2000	-131.3600	25.1200	0.0000	0.0000	0.0000	0.0000;
	54	56	0.02202	0.09633	0.01467	149	0	0	0	0	1	0	0	-73.7700	0.5300	74.9500	3.0900	0.0000	0.0000	0.0000	0.0000;
	89	54	0.08737	0.21357	0.02796	98	0	0	0	0	1	0	0	-55.8100	9.2900	58.7800	-4.7800	0.0000	0.0000	0.0000	0.0000;
	55	89	0.04982	0.12179	0.01595	98	0	0	0	0	1	0	0	-14.8700	20.0700	15.2000	-20.8000	0.0000	0.0000	0.0000	0.0000;
	57	56	0.00315	0.1312	0	101	0	0	1	0	1	0	0	0.0000	0.0000	0.0000	0.0000	0.0000	0.0000	0.0000	0.0000;
	56	61	0.02267	0.12946	0.01945	150	0	0	0	0	1	0	0	-2.1400	18.3600	2.2200	-19.9000	0.0000	0.0000	0.0000	0.0000;
	56	65	0.02269	0.12962	0.01948	250	0	0	0	0	1	0	0	-58.1200	27.6800	59.0200	-24.5300	0.0000	0.0000	0.0000	0.0000;
	59	58	0.02655	0.46187	0	33	0	0	1	0	1	0	0	0.0000	0.0000	0.0000	0.0000	0.0000	0.0000	0.0000	0.0000;
	60	58	0.00894	0.38854	0	27	0	0	1	0	1	0	0	0.0000	0.0000	0.0000	0.0000	0.0000	0.0000	0.0000	0.0000;
	69	58	0.0074	0.05155	0.00843	221	0	0	0	0	1	0	0	109.1600	-22.6200	-108.3100	27.6500	0.0000	0.0000	0.0000	0.0000;
	69	58	0.0074	0.05155	0.00843	221	0	0	0	0	1	0	0	109.1600	-22.6200	-108.3100	27.6500	0.0000	0.0000	0.0000	0.0000;
	58	87	0.01573	0.10956	0.01791	221	0	0	0	0	1	0	0	101.5800	-29.5500	-99.9700	38.7900	0.0000	0.0000	0.0000	0.0000;
	58	87	0.01573	0.10956	0.01791	221	0	0	0	0	1	0	0	101.5800	-29.5500	-99.9700	38.7900	0.0000	0.0000	0.0000	0.0000;
	62	61	0.016302	0.31787	0	29	0	0	1	0	1	0	0	0.0000	0.0000	0.0000	0.0000	0.0000	0.0000	0.0000	0.0000;
	63	61	0.00567	0.10409	0	200	0	0	1	0	1	0	0	0.0000	0.0000	-0.0000	0.0000	0.0000	0.0000	0.0000	0.0000;
	61	266	0.054	0.18	0.028	221	0	0	0	0	1	0	0	92.3800	-6.2300	-87.7900	18.8000	0.0000	0.0000	0.0000	0.0000;
	66	65	0.00508	0.12315	0	200	0	0	1	0	1	0	0	106.8800	-2.8000	-106.2900	16.8700	0.0000	0.0000	0.0000	0.0000;
	88	68	0.02962	0.16921	0.02543	98	0	0	0	0	1	0	0	49.0200	-0.0100	-48.3100	1.5700	0.0000	0.0000	0.0000	0.0000;
	70	69	0.00297	0.07	0	220	0	0	1	0	1	0	0	120.3800	2.9200	-119.9800	6.4600	0.0000	0.0000	0.0000	0.0000;
	82	69	0.02137	0.0952	0.01396	149	0	0	0	0	1	0	0	76.2300	-19.0900	-75.0000	23.0700	0.0000	0.0000	0.0000	0.0000;
	72	71	0.00529	0.08551	0	240	0	0	1	0	1	0	0	192.1300	20.0300	-190.1900	11.2500	0.0000	0.0000	0.0000	0.0000;
	73	71	0.00499	0.14254	0	240	0	0	1	0	1	0	0	192.1300	29.4300	-190.2800	23.3600	0.0000	0.0000	0.0000	0.0000;
	74	71	0.00575	0.12453	0	240	0	0	1	0	1	0	0	192.1300	25.2300	-190.0100	20.6100	0.0000	0.0000	0.0000	0.0000;
	75	71	0.003731	0.09967	0	240	0	0	1	0	1	0	0	192.1300	25.0800	-190.7600	11.6000	0.0000	0.0000	0.0000	0.0000;
	76	71	0.00141	0.04937	0	125	0	0	1	0	1	0	0	0.0000	0.0000	0.0000	0.0000	0.0000	0.0000	0.0000	0.0000;
	77	71	0.006405	0.12047	0	121	0	0	1	0	1	0	0	0.0000	0.0000	0.0000	0.0000	0.0000	0.0000	0.0000	0.0000;
	78	71	0.00533	0.19087	0	137	0	0	1	0	1	0	0	95.5000	13.3000	-95.0100	4.0900	0.0000	0.0000	0.0000	0.0000;
	79	71	0.004134	0.086	0	120	0	0	1	0	1	0	0	95.5000	15.4900	-95.1200	-7.5900	0.0000	0.0000	0.0000	0.0000;
	80	71	0.01206	0.20208	0	136	0	0	1	0	1	0	0	95.5000	10.3300	-94.4100	7.9500	0.0000	0.0000	0.0000	0.0000;
	81	71	0.00167	0.0665	0	350	0	0	1	0	1	0	0	-277.3900	73.9300	278.7100	-21.5700	0.0000	0.0000	0.0000	0.0000;
	81	282	0.0091	0.089	0.171	548	0	0	0	0	1	0	0	412.0100	43.0400	-397.0100	86.0200	0.0000	0.0000	0.0000	0.0000;
	84	354	0.02049	0.09131	0.01339	221	0	0	0	0	1	0	0	105.8800	5.7800	-103.6400	2.8600	0.0000	0.0000	0.0000	0.0000;
	85	86	0.03392	0.14838	0.0226	149	0	0	0	0	1	0	0	29.8400	-12.3000	-29.5100	11.4500	0.0000	0.0000	0.0000	0.0000;
	90	85	0.02018	0.13786	0.02346	221	0	0	0	0	1	0	0	23.7200	2.8100	-23.6000	-4.4600	0.0000	0.0000	0.0000	0.0000;
	120	91	0.0389	0.17144	0.0798	187	0	0	0	0	1	0	0	-22.3600	-0.9000	22.5500	-6.5300	0.0000	0.0000	0.0000	0.0000;
	91	139	0.02193	0.09667	0.045	187	0	0	0	0	1	0	0	8.7100	-1.4100	-8.6900	-3.2000	0.0000	0.0000	0.0000	0.0000;
	189	91	0.00554	0.02443	0.01137	187	0	0	0	0	1	0	0	42.9800	-5.4000	-42.8800	4.6500	0.0000	0.0000	0.0000	0.0000;
	113	92	0.00839	0.03697	0.01721	187	0	0	0	0	1	0	0	65.9000	7.1900	-65.5400	-7.3500	0.0000	0.0000	0.0000	0.0000;
	118	92	0.00955	0.04062	0.02032	187	0	0	0	0	1	0	0	-17.1500	4.4400	17.1800	-6.3500	0.0000	0.0000	0.0000	0.0000;
	94	93	0.0003	0.019856	0	981	0	0	1	0	1	0	0	-202.4800	10.5400	202.6000	-2.6000	0.0000	0.0000	0.0000	0.0000;
	95	93	0.000225	0.014662	0	635	0	0	1	0	1	0	0	0.0000	0.0000	-0.0000	0.0000	0.0000	0.0000	0.0000	0.0000;
	96	93	0.00033	0.017138	0	645	0	0	1	0	1	0	0	0.0000	0.0000	0.0000	0.0000	0.0000	0.0000	0.0000	0.0000;
	97	93	0.000362	0.026787	0	636	0	0	1	0	1	0	0	0.0000	0.0000	0.0000	0.0000	0.0000	0.0000	0.0000	0.0000;
	112	93	0.00097	0.01175	0.78032	2295	0	0	0	0	1	0	0	724.7200	-49.9000	-719.7800	29.4400	0.0000	0.0000	0.0000	0.0000;
	93	192	0.00031	0.0037	0.24573	2020	0	0	0	0	1	0	0	517.1800	-26.8400	-516.3700	11.2800	0.0000	0.0000	0.0000	0.0000;
	129	94	0.00353	0.02067	0.01032	251	0	0	0	0	1	0	0	-41.8000	-8.5900	41.8600	7.8900	0.0000	0.0000	0.0000	0.0000;
	94	138	0.0013	0.0099	0.0052	310	0	0	0	0	1	0	0	160.6200	-18.4400	-160.2900	20.4200	0.0000	0.0000	0.0000	0.0000;
	98	205	0.00888	0.05207	0.026	251	0	0	0	0	1	0	0	-75.5200	-3.0900	76.0200	3.3800	0.0000	0.0000	0.0000	0.0000;
	98	213	0.00861	0.03661	0.01831	187	0	0	0	0	1	0	0	65.9800	0.3900	-65.6100	-0.6500	0.0000	0.0000	0.0000	0.0000;
	105	99	0.02253	0.09931	0.04623	187	0	0	0	0	1	0	0	-6.3400	-3.4200	6.3500	-1.2800	0.0000	0.0000	0.0000	0.0000;
	99	143	0.01877	0.08271	0.0385	187	0	0	0	0	1	0	0	-14.4100	-1.0000	14.4500	-2.8000	0.0000	0.0000	0.0000	0.0000;
	100	140	0.01224	0.07176	0.03583	251	0	0	0	0	1	0	0	-112.9700	41.3000	114.6300	-35.4400	0.0000	0.0000	0.0000	0.0000;
	100	173	0.00735	0.03126	0.01563	187	0	0	0	0	1	0	0	-7.8400	101.2800	8.5500	-99.9000	0.0000	0.0000	0.0000	0.0000;
	200	100	0.00725	0.03084	0.01542	250	0	0	0	0	1	0	0	-81.0600	-47.9000	81.6700	48.8600	0.0000	0.0000	0.0000	0.0000;
	152	101	0.02439	0.10748	0.05003	187	0	0	0	0	1	0	0	-26.2800	11.4200	26.4900	-15.7100	0.0000	0.0000	0.0000	0.0000;
	101	170	0.02061	0.09083	0.04228	187	0	0	0	0	1	0	0	-37.2600	5.1500	37.5500	-8.2500	0.0000	0.0000	0.0000	0.0000;
	101	182	0.02461	0.10467	0.05235	187	0	0	0	0	1	0	0	-46.0300	15.0900	46.6100	-17.9800	0.0000	0.0000	0.0000	0.0000;
	103	102	0.000438	0.03546	0	461	0	0	1	0	1	0	0	121.9200	-34.4400	-121.8500	39.8500	0.0000	0.0000	0.0000	0.0000;
	104	102	0.00043	0.028967	0	412	0	0	1	0	1	0	0	150.4500	-28.8900	-150.3500	35.2900	0.0000	0.0000	0.0000	0.0000;
	218	102	0.00108	0.01307	0.86827	2020	0	0	0	0	1	0	0	-271.4500	-9.5800	272.2000	-75.1400	0.0000	0.0000	0.0000	0.0000;
	103	132	0.01245	0.05297	0.02649	187	0	0	0	0	1	0	0	-71.7100	15.0600	72.3500	-15.1300	0.0000	0.0000	0.0000	0.0000;
	103	143	0.02008	0.08851	0.0412	187	0	0	0	0	1	0	0	39.5800	1.2700	-39.2800	-4.2400	0.0000	0.0000	0.0000	0.0000;
	184	103	0.01029	0.04536	0.02111	187	0	0	0	0	1	0	0	-26.9200	5.8100	26.9900	-7.7000	0.0000	0.0000	0.0000	0.0000;
	103	214	0.00995	0.0423	0.02115	251	0	0	0	0	1	0	0	-116.7800	25.8200	118.1400	-22.2800	0.0000	0.0000	0.0000	0.0000;
	105	120	0.01859	0.07908	0.03955	187	0	0	0	0	1	0	0	-19.0900	-3.7800	19.1600	-0.0000	0.0000	0.0000	0.0000	0.0000;
	106	128	0.00862	0.03799	0.01769	187	0	0	0	0	1	0	0	12.3000	-27.6400	-12.2200	26.2000	0.0000	0.0000	0.0000	0.0000;
	577	106	0.00961	0.04237	0.01972	187	0	0	0	0	1	0	0	17.0800	-27.8100	-16.9800	26.3100	0.0000	0.0000	0.0000	0.0000;
	134	107	0.00593	0.02614	0.01217	187	0	0	0	0	1	0	0	22.2600	-21.5000	-22.2100	20.4500	0.0000	0.0000	0.0000	0.0000;
	160	107	0.0084	0.03705	0.01725	187	0	0	0	0	1	0	0	47.3600	39.5300	-47.0600	-40.0700	0.0000	0.0000	0.0000	0.0000;
	109	108	0.000478	0.050445	0	271	0	0	1	0	1	0	0	26.8300	-3.6600	-26.8300	4.0100	0.0000	0.0000	0.0000	0.0000;
	110	108	0.0002	0.011816	0	454	0	0	1	0	1	0	0	0.0000	0.0000	-0.0000	0.0000	0.0000	0.0000	0.0000	0.0000;
	108	187	0.00253	0.03068	2.03836	2020	0	0	0	0	1	0	0	-310.0000	-39.8600	312.4100	-144.5000	0.0000	0.0000	0.0000	0.0000;
	108	218	0.00089	0.01081	0.71846	2020	0	0	0	0	1	0	0	336.8300	-175.4200	-335.7200	112.1600	0.0000	0.0000	0.0000	0.0000;
	109	184	0.01163	0.05125	0.02386	187	0	0	0	0	1	0	0	-26.8300	3.6600	26.9200	-5.8100	0.0000	0.0000	0.0000	0.0000;
	136	111	0.00097	0.00548	0.00295	310	0	0	0	0	1	0	0	-182.9500	29.2000	183.2900	-27.5900	0.0000	0.0000	0.0000	0.0000;
	146	111	0.00102	0.00744	0.00422	409	0	0	0	0	1	0	0	231.8100	-10.4000	-231.2600	14.0000	0.0000	0.0000	0.0000	0.0000;
	113	112	0.00034	0.018881	0	867	0	0	1	0	1	0	0	-182.2500	-12.9800	182.3600	19.1400	0.0000	0.0000	0.0000	0.0000;
	114	112	0.00054	0.034065	0	319	0	0	1	0	1	0	0	83.3300	13.0600	-83.2900	-10.7300	0.0000	0.0000	0.0000	0.0000;
	115	112	0.000362	0.024254	0	391	0	0	1	0	1	0	0	166.6700	19.3500	-166.5700	-12.7800	0.0000	0.0000	0.0000	0.0000;
	204	112	0.0001	0.00124	0.08207	2020	0	0	0	0	1	0	0	657.6400	-57.5000	-657.2200	54.2700	0.0000	0.0000	0.0000	0.0000;
	113	131	0.02207	0.09391	0.04697	187	0	0	0	0	1	0	0	12.6400	-2.6700	-12.6100	-1.9800	0.0000	0.0000	0.0000	0.0000;
	155	113	0.00558	0.03156	0.01697	251	0	0	0	0	1	0	0	-91.6800	-4.2900	92.1500	5.1900	0.0000	0.0000	0.0000	0.0000;
	116	146	0.0023	0.01016	0.00473	187	0	0	0	0	1	0	0	-29.6500	-27.4900	29.6900	27.1900	0.0000	0.0000	0.0000	0.0000;
	158	116	0.00317	0.014	0.00651	187	0	0	0	0	1	0	0	9.9800	-16.8600	-9.9700	16.2700	0.0000	0.0000	0.0000	0.0000;
	149	117	0.02475	0.10526	0.05264	187	0	0	0	0	1	0	0	65.1800	-14.1300	-64.1500	12.9400	0.0000	0.0000	0.0000	0.0000;
	219	117	0.01207	0.05318	0.02475	187	0	0	0	0	1	0	0	-45.3100	16.7800	45.5800	-18.2000	0.0000	0.0000	0.0000	0.0000;
	118	181	0.01692	0.07455	0.0347	187	0	0	0	0	1	0	0	13.5900	-5.4400	-13.5600	2.0900	0.0000	0.0000	0.0000	0.0000;
	119	136	0.00363	0.02129	0.01063	251	0	0	0	0	1	0	0	-159.3600	40.3200	160.3400	-35.6000	0.0000	0.0000	0.0000	0.0000;
	119	200	0.01026	0.0452	0.02104	250	0	0	0	0	1	0	0	-46.8800	-38.8200	47.2500	38.3200	0.0000	0.0000	0.0000	0.0000;
	203	119	0.00369	0.02161	0.01079	310	0	0	0	0	1	0	0	-190.6300	12.4600	192.0000	-5.5400	0.0000	0.0000	0.0000	0.0000;
	121	197	0.0118	0.05199	0.0242	187	0	0	0	0	1	0	0	66.0100	-17.7300	-65.4500	17.7900	0.0000	0.0000	0.0000	0.0000;
	213	121	0.00737	0.0432	0.02157	251	0	0	0	0	1	0	0	114.1100	-0.8700	-113.1500	4.3700	0.0000	0.0000	0.0000	0.0000;
	122	139	0.02398	0.10567	0.04919	187	0	0	0	0	1	0	0	40.7100	-15.4700	-40.2900	12.2700	0.0000	0.0000	0.0000	0.0000;
	122	178	0.02177	0.09259	0.04631	187	0	0	0	0	1	0	0	-46.4800	13.8300	46.9900	-16.3800	0.0000	0.0000	0.0000	0.0000;
	123	205	0.01097	0.04834	0.0225	187	0	0	0	0	1	0	0	-59.0100	-0.3300	59.3900	-0.3100	0.0000	0.0000	0.0000	0.0000;
	213	123	0.01414	0.06232	0.02901	187	0	0	0	0	1	0	0	-55.2300	-0.3900	55.6600	-0.6200	0.0000	0.0000	0.0000	0.0000;
	220	124	0.00522	0.02298	0.0107	187	0	0	0	0	1	0	0	-37.3200	14.9900	37.4100	-15.6700	0.0000	0.0000	0.0000	0.0000;
	124	851	0.00925	0.03935	0.01968	187	0	0	0	0	1	0	0	-50.9800	11.8200	51.2400	-12.6700	0.0000	0.0000	0.0000	0.0000;
	125	134	0.00439	0.01867	0.00934	187	0	0	0	0	1	0	0	26.5400	-21.0700	-26.5000	20.3000	0.0000	0.0000	0.0000	0.0000;
	137	125	0.00468	0.01993	0.00997	187	0	0	0	0	1	0	0	31.9500	-20.3200	-31.8800	19.5600	0.0000	0.0000	0.0000	0.0000;
	126	157	0.01411	0.08272	0.04131	251	0	0	0	0	1	0	0	-69.1300	13.1300	69.8200	-13.2300	0.0000	0.0000	0.0000	0.0000;
	126	182	0.01863	0.10528	0.05663	251	0	0	0	0	1	0	0	64.4400	-14.4600	-63.6500	13.1500	0.0000	0.0000	0.0000	0.0000;
	127	146	0.00216	0.0092	0.0046	300	0	0	0	0	1	0	0	-89.4200	76.6700	89.7200	-75.8600	0.0000	0.0000	0.0000	0.0000;
...